
  Mrv0541 02231216082D          

155160  0  0  1  0            999 V2000
  -19.1798  -19.8286    0.0000 N   0  0  0  0  0  0  0  0  0  0  0  0
  -18.5326  -19.3169    0.0000 C   0  0  0  0  0  0  0  0  0  0  0  0
  -17.7659  -19.6216    0.0000 N   0  0  0  0  0  0  0  0  0  0  0  0
  -18.6521  -18.5006    0.0000 N   0  0  0  0  0  0  0  0  0  0  0  0
  -19.4188  -18.1960    0.0000 C   0  0  0  0  0  0  0  0  0  0  0  0
  -19.5383  -17.3797    0.0000 C   0  0  0  0  0  0  0  0  0  0  0  0
  -20.3050  -17.0751    0.0000 C   0  0  0  0  0  0  0  0  0  0  0  0
  -20.4245  -16.2588    0.0000 C   0  0  2  0  0  0  0  0  0  0  0  0
  -21.1912  -15.9541    0.0000 N   0  0  0  0  0  0  0  0  0  0  0  0
  -21.8384  -16.4658    0.0000 C   0  0  0  0  0  0  0  0  0  0  0  0
  -21.7189  -17.2821    0.0000 O   0  0  0  0  0  0  0  0  0  0  0  0
  -22.6051  -16.1611    0.0000 C   0  0  2  0  0  0  0  0  0  0  0  0
  -23.3022  -16.6023    0.0000 C   0  0  0  0  0  0  0  0  0  0  0  0
  -23.9372  -16.0757    0.0000 C   0  0  0  0  0  0  0  0  0  0  0  0
  -23.6326  -15.3090    0.0000 C   0  0  0  0  0  0  0  0  0  0  0  0
  -22.8093  -15.3618    0.0000 N   0  0  0  0  0  0  0  0  0  0  0  0
  -22.2826  -14.7268    0.0000 C   0  0  0  0  0  0  0  0  0  0  0  0
  -21.4693  -14.8653    0.0000 O   0  0  0  0  0  0  0  0  0  0  0  0
  -22.5692  -13.9531    0.0000 C   0  0  2  0  0  0  0  0  0  0  0  0
  -22.0426  -13.3181    0.0000 N   0  0  0  0  0  0  0  0  0  0  0  0
  -23.3825  -13.8146    0.0000 C   0  0  0  0  0  0  0  0  0  0  0  0
  -23.6691  -13.0409    0.0000 C   0  0  0  0  0  0  0  0  0  0  0  0
  -24.4824  -12.9024    0.0000 C   0  0  0  0  0  0  0  0  0  0  0  0
  -24.7690  -12.1288    0.0000 C   0  0  0  0  0  0  0  0  0  0  0  0
  -24.2424  -11.4937    0.0000 C   0  0  0  0  0  0  0  0  0  0  0  0
  -23.4291  -11.6323    0.0000 C   0  0  0  0  0  0  0  0  0  0  0  0
  -23.1425  -12.4059    0.0000 C   0  0  0  0  0  0  0  0  0  0  0  0
  -19.7773  -15.7471    0.0000 C   0  0  0  0  0  0  0  0  0  0  0  0
  -19.8969  -14.9308    0.0000 O   0  0  0  0  0  0  0  0  0  0  0  0
  -19.0106  -16.0518    0.0000 N   0  0  0  0  0  0  0  0  0  0  0  0
  -18.8065  -16.8511    0.0000 C   0  0  0  0  0  0  0  0  0  0  0  0
  -17.9832  -16.9039    0.0000 C   0  0  0  0  0  0  0  0  0  0  0  0
  -17.6785  -16.1372    0.0000 C   0  0  0  0  0  0  0  0  0  0  0  0
  -18.3135  -15.6106    0.0000 C   0  0  1  0  0  0  0  0  0  0  0  0
  -18.2607  -14.7872    0.0000 C   0  0  0  0  0  0  0  0  0  0  0  0
  -17.5213  -14.4213    0.0000 O   0  0  0  0  0  0  0  0  0  0  0  0
  -18.9473  -14.3299    0.0000 N   0  0  0  0  0  0  0  0  0  0  0  0
  -18.8945  -13.5065    0.0000 C   0  0  0  0  0  0  0  0  0  0  0  0
  -18.1551  -13.1406    0.0000 C   0  0  0  0  0  0  0  0  0  0  0  0
  -18.1023  -12.3173    0.0000 O   0  0  0  0  0  0  0  0  0  0  0  0
  -17.4685  -13.5980    0.0000 N   0  0  0  0  0  0  0  0  0  0  0  0
  -16.7291  -13.2321    0.0000 C   0  0  0  0  0  0  0  0  0  0  0  0
  -16.0425  -13.6895    0.0000 C   0  0  0  0  0  0  0  0  0  0  0  0
  -16.0953  -14.5128    0.0000 O   0  0  0  0  0  0  0  0  0  0  0  0
  -15.3031  -13.3236    0.0000 N   0  0  0  0  0  0  0  0  0  0  0  0
  -14.6165  -13.7810    0.0000 C   0  0  0  0  0  0  0  0  0  0  0  0
  -13.8771  -13.4151    0.0000 C   0  0  0  0  0  0  0  0  0  0  0  0
  -13.8242  -12.5918    0.0000 O   0  0  0  0  0  0  0  0  0  0  0  0
  -13.1905  -13.8725    0.0000 N   0  0  0  0  0  0  0  0  0  0  0  0
  -12.4510  -13.5065    0.0000 C   0  0  0  0  0  0  0  0  0  0  0  0
  -11.7644  -13.9639    0.0000 C   0  0  0  0  0  0  0  0  0  0  0  0
  -11.8173  -14.7872    0.0000 O   0  0  0  0  0  0  0  0  0  0  0  0
  -11.0250  -13.5980    0.0000 N   0  0  0  0  0  0  0  0  0  0  0  0
  -10.3384  -14.0554    0.0000 C   0  0  1  0  0  0  0  0  0  0  0  0
  -10.3912  -14.8787    0.0000 C   0  0  0  0  0  0  0  0  0  0  0  0
   -9.7047  -15.3361    0.0000 C   0  0  0  0  0  0  0  0  0  0  0  0
   -9.7575  -16.1594    0.0000 N   0  0  0  0  0  0  0  0  0  0  0  0
   -8.9652  -14.9702    0.0000 O   0  0  0  0  0  0  0  0  0  0  0  0
   -9.5990  -13.6895    0.0000 C   0  0  0  0  0  0  0  0  0  0  0  0
   -9.5462  -12.8662    0.0000 O   0  0  0  0  0  0  0  0  0  0  0  0
   -8.9124  -14.1469    0.0000 N   0  0  0  0  0  0  0  0  0  0  0  0
   -8.1730  -13.7810    0.0000 C   0  0  0  0  0  0  0  0  0  0  0  0
   -7.4864  -14.2384    0.0000 C   0  0  0  0  0  0  0  0  0  0  0  0
   -7.5392  -15.0617    0.0000 O   0  0  0  0  0  0  0  0  0  0  0  0
   -6.7470  -13.8725    0.0000 N   0  0  0  0  0  0  0  0  0  0  0  0
   -6.0604  -14.3299    0.0000 C   0  0  1  0  0  0  0  0  0  0  0  0
   -6.1132  -15.1532    0.0000 C   0  0  0  0  0  0  0  0  0  0  0  0
   -5.4266  -15.6106    0.0000 C   0  0  0  0  0  0  0  0  0  0  0  0
   -5.4794  -16.4339    0.0000 O   0  0  0  0  0  0  0  0  0  0  0  0
   -4.6872  -15.2446    0.0000 O   0  0  0  0  0  0  0  0  0  0  0  0
   -5.3210  -13.9639    0.0000 C   0  0  0  0  0  0  0  0  0  0  0  0
   -5.2682  -13.1406    0.0000 O   0  0  0  0  0  0  0  0  0  0  0  0
   -4.6344  -14.4213    0.0000 N   0  0  0  0  0  0  0  0  0  0  0  0
   -3.8950  -14.0554    0.0000 C   0  0  1  0  0  0  0  0  0  0  0  0
   -3.2084  -14.5128    0.0000 C   0  0  0  0  0  0  0  0  0  0  0  0
   -3.2612  -15.3361    0.0000 C   0  0  0  0  0  0  0  0  0  0  0  0
   -2.5746  -15.7935    0.0000 C   0  0  0  0  0  0  0  0  0  0  0  0
   -2.6274  -16.6168    0.0000 C   0  0  0  0  0  0  0  0  0  0  0  0
   -3.3668  -16.9827    0.0000 C   0  0  0  0  0  0  0  0  0  0  0  0
   -4.0534  -16.5253    0.0000 C   0  0  0  0  0  0  0  0  0  0  0  0
   -4.0006  -15.7020    0.0000 C   0  0  0  0  0  0  0  0  0  0  0  0
   -3.8422  -13.2321    0.0000 C   0  0  0  0  0  0  0  0  0  0  0  0
   -4.5288  -12.7747    0.0000 O   0  0  0  0  0  0  0  0  0  0  0  0
   -3.1027  -12.8662    0.0000 N   0  0  0  0  0  0  0  0  0  0  0  0
   -2.4162  -13.3236    0.0000 C   0  0  1  0  0  0  0  0  0  0  0  0
   -2.4690  -14.1469    0.0000 C   0  0  0  0  0  0  0  0  0  0  0  0
   -1.7824  -14.6043    0.0000 C   0  0  0  0  0  0  0  0  0  0  0  0
   -1.8352  -15.4276    0.0000 C   0  0  0  0  0  0  0  0  0  0  0  0
   -2.2183  -16.1582    0.0000 O   0  0  0  0  0  0  0  0  0  0  0  0
   -1.1486  -15.8850    0.0000 O   0  0  0  0  0  0  0  0  0  0  0  0
   -1.6767  -12.9577    0.0000 C   0  0  0  0  0  0  0  0  0  0  0  0
   -1.6239  -12.1344    0.0000 O   0  0  0  0  0  0  0  0  0  0  0  0
   -0.9901  -13.4151    0.0000 N   0  0  0  0  0  0  0  0  0  0  0  0
   -0.2507  -13.0492    0.0000 C   0  0  1  0  0  0  0  0  0  0  0  0
   -0.1979  -12.2258    0.0000 C   0  0  0  0  0  0  0  0  0  0  0  0
    0.5415  -11.8599    0.0000 C   0  0  0  0  0  0  0  0  0  0  0  0
    0.5943  -11.0366    0.0000 C   0  0  0  0  0  0  0  0  0  0  0  0
   -0.0923  -10.5792    0.0000 O   0  0  0  0  0  0  0  0  0  0  0  0
    1.3337  -10.6707    0.0000 O   0  0  0  0  0  0  0  0  0  0  0  0
    0.4359  -13.5065    0.0000 C   0  0  0  0  0  0  0  0  0  0  0  0
    0.3831  -14.3299    0.0000 O   0  0  0  0  0  0  0  0  0  0  0  0
    1.1753  -13.1406    0.0000 N   0  0  0  0  0  0  0  0  0  0  0  0
    1.8619  -13.5980    0.0000 C   0  0  1  0  0  0  0  0  0  0  0  0
    1.8091  -14.4213    0.0000 C   0  0  1  0  0  0  0  0  0  0  0  0
    2.4957  -14.8787    0.0000 C   0  0  0  0  0  0  0  0  0  0  0  0
    1.0697  -14.7872    0.0000 C   0  0  0  0  0  0  0  0  0  0  0  0
    1.0168  -15.6106    0.0000 C   0  0  0  0  0  0  0  0  0  0  0  0
    2.6013  -13.2321    0.0000 C   0  0  0  0  0  0  0  0  0  0  0  0
    2.6541  -12.4088    0.0000 O   0  0  0  0  0  0  0  0  0  0  0  0
    3.2879  -13.6895    0.0000 N   0  0  0  0  0  0  0  0  0  0  0  0
    3.3214  -14.5138    0.0000 C   0  0  0  0  0  0  0  0  0  0  0  0
    4.1158  -14.7367    0.0000 C   0  0  0  0  0  0  0  0  0  0  0  0
    4.5732  -14.0501    0.0000 C   0  0  0  0  0  0  0  0  0  0  0  0
    4.0615  -13.4029    0.0000 C   0  0  1  0  0  0  0  0  0  0  0  0
    4.2843  -12.6085    0.0000 C   0  0  0  0  0  0  0  0  0  0  0  0
    5.0837  -12.4044    0.0000 O   0  0  0  0  0  0  0  0  0  0  0  0
    3.7078  -12.0184    0.0000 N   0  0  0  0  0  0  0  0  0  0  0  0
    3.9307  -11.2241    0.0000 C   0  0  1  0  0  0  0  0  0  0  0  0
    4.7300  -11.0199    0.0000 C   0  0  0  0  0  0  0  0  0  0  0  0
    4.9528  -10.2255    0.0000 C   0  0  0  0  0  0  0  0  0  0  0  0
    5.7522  -10.0214    0.0000 C   0  0  0  0  0  0  0  0  0  0  0  0
    5.9750   -9.2270    0.0000 O   0  0  0  0  0  0  0  0  0  0  0  0
    6.3287  -10.6115    0.0000 O   0  0  0  0  0  0  0  0  0  0  0  0
    3.3542  -10.6339    0.0000 C   0  0  0  0  0  0  0  0  0  0  0  0
    2.5548  -10.8381    0.0000 O   0  0  0  0  0  0  0  0  0  0  0  0
    3.5770   -9.8396    0.0000 N   0  0  0  0  0  0  0  0  0  0  0  0
    3.0005   -9.2494    0.0000 C   0  0  1  0  0  0  0  0  0  0  0  0
    2.2012   -9.4536    0.0000 C   0  0  0  0  0  0  0  0  0  0  0  0
    1.6247   -8.8635    0.0000 C   0  0  0  0  0  0  0  0  0  0  0  0
    0.8254   -9.0676    0.0000 C   0  0  0  0  0  0  0  0  0  0  0  0
    0.6025   -9.8620    0.0000 O   0  0  0  0  0  0  0  0  0  0  0  0
    0.2489   -8.4775    0.0000 O   0  0  0  0  0  0  0  0  0  0  0  0
    3.2234   -8.4551    0.0000 C   0  0  0  0  0  0  0  0  0  0  0  0
    4.0227   -8.2509    0.0000 O   0  0  0  0  0  0  0  0  0  0  0  0
    2.6469   -7.8649    0.0000 N   0  0  0  0  0  0  0  0  0  0  0  0
    2.8697   -7.0706    0.0000 C   0  0  1  0  0  0  0  0  0  0  0  0
    3.6690   -6.8664    0.0000 C   0  0  0  0  0  0  0  0  0  0  0  0
    3.8919   -6.0721    0.0000 C   0  0  0  0  0  0  0  0  0  0  0  0
    3.3154   -5.4819    0.0000 C   0  0  0  0  0  0  0  0  0  0  0  0
    3.5382   -4.6876    0.0000 C   0  0  0  0  0  0  0  0  0  0  0  0
    4.3375   -4.4834    0.0000 C   0  0  0  0  0  0  0  0  0  0  0  0
    4.5604   -3.6891    0.0000 O   0  0  0  0  0  0  0  0  0  0  0  0
    4.9140   -5.0736    0.0000 C   0  0  0  0  0  0  0  0  0  0  0  0
    4.6912   -5.8679    0.0000 C   0  0  0  0  0  0  0  0  0  0  0  0
    2.2932   -6.4805    0.0000 C   0  0  0  0  0  0  0  0  0  0  0  0
    1.4939   -6.6846    0.0000 O   0  0  0  0  0  0  0  0  0  0  0  0
    2.5160   -5.6861    0.0000 N   0  0  0  0  0  0  0  0  0  0  0  0
    1.9395   -5.0960    0.0000 C   0  0  1  0  0  0  0  0  0  0  0  0
    2.1624   -4.3016    0.0000 C   0  0  0  0  0  0  0  0  0  0  0  0
    1.5859   -3.7115    0.0000 C   0  0  0  0  0  0  0  0  0  0  0  0
    0.7865   -3.9157    0.0000 C   0  0  0  0  0  0  0  0  0  0  0  0
    1.8087   -2.9171    0.0000 C   0  0  0  0  0  0  0  0  0  0  0  0
    1.1402   -5.3002    0.0000 C   0  0  0  0  0  0  0  0  0  0  0  0
    0.5637   -4.7100    0.0000 O   0  0  0  0  0  0  0  0  0  0  0  0
    0.9174   -6.0945    0.0000 O   0  0  0  0  0  0  0  0  0  0  0  0
  1  2  2  0  0  0  0
  2  3  1  0  0  0  0
  2  4  1  0  0  0  0
  4  5  1  0  0  0  0
  5  6  1  0  0  0  0
  6  7  1  0  0  0  0
  7  8  1  0  0  0  0
  8  9  1  6  0  0  0
  9 10  1  0  0  0  0
 10 11  2  0  0  0  0
 12 10  1  6  0  0  0
 12 13  1  0  0  0  0
 13 14  1  0  0  0  0
 14 15  1  0  0  0  0
 15 16  1  0  0  0  0
 12 16  1  0  0  0  0
 16 17  1  0  0  0  0
 17 18  2  0  0  0  0
 17 19  1  0  0  0  0
 19 20  1  1  0  0  0
 19 21  1  0  0  0  0
 21 22  1  0  0  0  0
 22 23  2  0  0  0  0
 23 24  1  0  0  0  0
 24 25  2  0  0  0  0
 25 26  1  0  0  0  0
 26 27  2  0  0  0  0
 22 27  1  0  0  0  0
  8 28  1  0  0  0  0
 28 29  2  0  0  0  0
 28 30  1  0  0  0  0
 30 31  1  0  0  0  0
 31 32  1  0  0  0  0
 32 33  1  0  0  0  0
 33 34  1  0  0  0  0
 30 34  1  0  0  0  0
 34 35  1  6  0  0  0
 35 36  2  0  0  0  0
 35 37  1  0  0  0  0
 37 38  1  0  0  0  0
 38 39  1  0  0  0  0
 39 40  2  0  0  0  0
 39 41  1  0  0  0  0
 41 42  1  0  0  0  0
 42 43  1  0  0  0  0
 43 44  2  0  0  0  0
 43 45  1  0  0  0  0
 45 46  1  0  0  0  0
 46 47  1  0  0  0  0
 47 48  2  0  0  0  0
 47 49  1  0  0  0  0
 49 50  1  0  0  0  0
 50 51  1  0  0  0  0
 51 52  2  0  0  0  0
 51 53  1  0  0  0  0
 54 53  1  6  0  0  0
 54 55  1  0  0  0  0
 55 56  1  0  0  0  0
 56 57  1  0  0  0  0
 56 58  2  0  0  0  0
 54 59  1  0  0  0  0
 59 60  2  0  0  0  0
 59 61  1  0  0  0  0
 61 62  1  0  0  0  0
 62 63  1  0  0  0  0
 63 64  2  0  0  0  0
 63 65  1  0  0  0  0
 66 65  1  6  0  0  0
 66 67  1  0  0  0  0
 67 68  1  0  0  0  0
 68 69  1  0  0  0  0
 68 70  2  0  0  0  0
 66 71  1  0  0  0  0
 71 72  2  0  0  0  0
 71 73  1  0  0  0  0
 74 73  1  6  0  0  0
 74 75  1  0  0  0  0
 75 76  1  0  0  0  0
 76 77  2  0  0  0  0
 77 78  1  0  0  0  0
 78 79  2  0  0  0  0
 79 80  1  0  0  0  0
 80 81  2  0  0  0  0
 76 81  1  0  0  0  0
 74 82  1  0  0  0  0
 82 83  2  0  0  0  0
 82 84  1  0  0  0  0
 85 84  1  6  0  0  0
 85 86  1  0  0  0  0
 86 87  1  0  0  0  0
 87 88  1  0  0  0  0
 88 89  1  0  0  0  0
 88 90  2  0  0  0  0
 85 91  1  0  0  0  0
 91 92  2  0  0  0  0
 91 93  1  0  0  0  0
 94 93  1  1  0  0  0
 94 95  1  0  0  0  0
 95 96  1  0  0  0  0
 96 97  1  0  0  0  0
 97 98  1  0  0  0  0
 97 99  2  0  0  0  0
 94100  1  0  0  0  0
100101  2  0  0  0  0
100102  1  0  0  0  0
103102  1  6  0  0  0
103104  1  0  0  0  0
104105  1  1  0  0  0
104106  1  0  0  0  0
106107  1  0  0  0  0
103108  1  0  0  0  0
108109  2  0  0  0  0
108110  1  0  0  0  0
110111  1  0  0  0  0
111112  1  0  0  0  0
112113  1  0  0  0  0
113114  1  0  0  0  0
110114  1  0  0  0  0
114115  1  6  0  0  0
115116  2  0  0  0  0
115117  1  0  0  0  0
118117  1  6  0  0  0
118119  1  0  0  0  0
119120  1  0  0  0  0
120121  1  0  0  0  0
121122  1  0  0  0  0
121123  2  0  0  0  0
118124  1  0  0  0  0
124125  2  0  0  0  0
124126  1  0  0  0  0
127126  1  1  0  0  0
127128  1  0  0  0  0
128129  1  0  0  0  0
129130  1  0  0  0  0
130131  1  0  0  0  0
130132  2  0  0  0  0
127133  1  0  0  0  0
133134  2  0  0  0  0
133135  1  0  0  0  0
136135  1  6  0  0  0
136137  1  0  0  0  0
137138  1  0  0  0  0
138139  2  0  0  0  0
139140  1  0  0  0  0
140141  2  0  0  0  0
141142  1  0  0  0  0
141143  1  0  0  0  0
143144  2  0  0  0  0
138144  1  0  0  0  0
136145  1  0  0  0  0
145146  2  0  0  0  0
145147  1  0  0  0  0
148147  1  6  0  0  0
148149  1  0  0  0  0
149150  1  0  0  0  0
150151  1  0  0  0  0
150152  1  0  0  0  0
148153  1  0  0  0  0
153154  1  0  0  0  0
153155  2  0  0  0  0
M  END
> <DATABASE_ID>
DB00006

> <DATABASE_NAME>
drugbank

> <SMILES>
CC[C@H](C)[C@H](NC(=O)[C@H](CCC(O)=O)NC(=O)[C@H](CCC(O)=O)NC(=O)[C@H](CC1=CC=CC=C1)NC(=O)[C@H](CC(O)=O)NC(=O)CNC(=O)[C@H](CC(N)=O)NC(=O)CNC(=O)CNC(=O)CNC(=O)CNC(=O)[C@@H]1CCCN1C(=O)[C@H](CCCNC(N)=N)NC(=O)[C@@H]1CCCN1C(=O)[C@H](N)CC1=CC=CC=C1)C(=O)N1CCC[C@H]1C(=O)N[C@@H](CCC(O)=O)C(=O)N[C@@H](CCC(O)=O)C(=O)N[C@@H](CC1=CC=C(O)C=C1)C(=O)N[C@@H](CC(C)C)C(O)=O

> <INCHI_IDENTIFIER>
InChI=1S/C98H138N24O33/c1-5-52(4)82(96(153)122-39-15-23-70(122)92(149)114-60(30-34-79(134)135)85(142)111-59(29-33-78(132)133)86(143)116-64(43-55-24-26-56(123)27-25-55)89(146)118-67(97(154)155)40-51(2)3)119-87(144)61(31-35-80(136)137)112-84(141)58(28-32-77(130)131)113-88(145)63(42-54-18-10-7-11-19-54)117-90(147)66(45-81(138)139)110-76(129)50-107-83(140)65(44-71(100)124)109-75(128)49-106-73(126)47-104-72(125)46-105-74(127)48-108-91(148)68-21-13-38-121(68)95(152)62(20-12-36-103-98(101)102)115-93(150)69-22-14-37-120(69)94(151)57(99)41-53-16-8-6-9-17-53/h6-11,16-19,24-27,51-52,57-70,82,123H,5,12-15,20-23,28-50,99H2,1-4H3,(H2,100,124)(H,104,125)(H,105,127)(H,106,126)(H,107,140)(H,108,148)(H,109,128)(H,110,129)(H,111,142)(H,112,141)(H,113,145)(H,114,149)(H,115,150)(H,116,143)(H,117,147)(H,118,146)(H,119,144)(H,130,131)(H,132,133)(H,134,135)(H,136,137)(H,138,139)(H,154,155)(H4,101,102,103)/t52-,57+,58-,59-,60-,61-,62-,63-,64-,65-,66-,67-,68-,69-,70-,82-/m0/s1

> <INCHI_KEY>
OIRCOABEOLEUMC-GEJPAHFPSA-N

> <FORMULA>
C98H138N24O33

> <MOLECULAR_WEIGHT>
2180.2853

> <EXACT_MASS>
2178.985813062

> <JCHEM_ACCEPTOR_COUNT>
37

> <JCHEM_AVERAGE_POLARIZABILITY>
215.45560313091494

> <JCHEM_BIOAVAILABILITY>
0

> <JCHEM_DONOR_COUNT>
28

> <JCHEM_FORMAL_CHARGE>
0

> <JCHEM_GHOSE_FILTER>
0

> <JCHEM_IUPAC>
(4S)-4-[(2S)-2-[(2S)-2-[(2S)-2-{2-[(2S)-2-(2-{2-[2-(2-{[(2S)-1-[(2S)-2-{[(2S)-1-[(2R)-2-amino-3-phenylpropanoyl]pyrrolidin-2-yl]formamido}-5-carbamimidamidopentanoyl]pyrrolidin-2-yl]formamido}acetamido)acetamido]acetamido}acetamido)-3-carbamoylpropanamido]acetamido}-3-carboxypropanamido]-3-phenylpropanamido]-4-carboxybutanamido]-4-{[(2S,3S)-1-[(2S)-2-{[(1S)-3-carboxy-1-{[(1S)-3-carboxy-1-{[(1S)-1-{[(1S)-1-carboxy-3-methylbutyl]carbamoyl}-2-(4-hydroxyphenyl)ethyl]carbamoyl}propyl]carbamoyl}propyl]carbamoyl}pyrrolidin-1-yl]-3-methyl-1-oxopentan-2-yl]carbamoyl}butanoic acid

> <ALOGPS_LOGP>
-0.76

> <JCHEM_LOGP>
-14.345512778557275

> <ALOGPS_LOGS>
-4.67

> <JCHEM_MDDR_LIKE_RULE>
1

> <JCHEM_NUMBER_OF_RINGS>
6

> <JCHEM_PHYSIOLOGICAL_CHARGE>
-4

> <JCHEM_PKA>
3.177101336420163

> <JCHEM_PKA_STRONGEST_ACIDIC>
2.7944312684415116

> <JCHEM_PKA_STRONGEST_BASIC>
11.878406919439332

> <JCHEM_POLAR_SURFACE_AREA>
901.5700000000003

> <JCHEM_REFRACTIVITY>
543.3342000000006

> <JCHEM_ROTATABLE_BOND_COUNT>
66

> <JCHEM_RULE_OF_FIVE>
0

> <ALOGPS_SOLUBILITY>
4.64e-02 g/l

> <JCHEM_TRADITIONAL_IUPAC>
bivalirudin

> <JCHEM_VEBER_RULE>
0

> <DRUGBANK_ID>
DB00006

> <SECONDARY_ACCESSION_NUMBERS>
BTD00076; BIOD00076

> <DRUG_GROUPS>
approved; investigational

> <GENERIC_NAME>
Bivalirudin

> <PRODUCTS>
Angiomax; Bivalirudin; Bivalirudin for Injection

$$$$
[NO NAME]
  Mrv0541 04221219462D          
Created with ChemWriter - http://chemwriter.com
 91 96  0  0  1  0            999 V2000
   12.8548   -2.6382    0.0000 O   0  0  0  0  0  0  0  0  0  0  0  0
   13.9726   -2.5226    0.0000 O   0  0  0  0  0  0  0  0  0  0  0  0
   10.1766   -3.9327    0.0000 O   0  0  0  0  0  0  0  0  0  0  0  0
   11.2019   -0.7961    0.0000 O   0  0  0  0  0  0  0  0  0  0  0  0
    8.7800   -1.3064    0.0000 O   0  0  0  0  0  0  0  0  0  0  0  0
   16.8589   -3.2421    0.0000 O   0  0  0  0  0  0  0  0  0  0  0  0
   10.3562    1.2163    0.0000 O   0  0  0  0  0  0  0  0  0  0  0  0
    3.2702    4.8341    0.0000 O   0  0  0  0  0  0  0  0  0  0  0  0
    2.3500    8.2734    0.0000 O   0  0  0  0  0  0  0  0  0  0  0  0
    3.8213    4.2201    0.0000 O   0  0  0  0  0  0  0  0  0  0  0  0
    5.2178    1.5938    0.0000 O   0  0  0  0  0  0  0  0  0  0  0  0
    7.8960    2.8883    0.0000 O   0  0  0  0  0  0  0  0  0  0  0  0
    7.1271    0.5358    0.0000 O   0  0  0  0  0  0  0  0  0  0  0  0
   12.4834    3.1249    0.0000 O   0  0  0  0  0  0  0  0  0  0  0  0
   13.1495   -4.0364    0.0000 N   0  0  0  0  0  0  0  0  0  0  0  0
   11.2402   -2.9784    0.0000 N   0  0  0  0  0  0  0  0  0  0  0  0
   15.2089   -3.2393    0.0000 N   0  0  0  0  0  0  0  0  0  0  0  0
   10.1383   -1.7503    0.0000 N   0  0  0  0  0  0  0  0  0  0  0  0
   15.6226   -2.5255    0.0000 N   0  0  0  0  0  0  0  0  0  0  0  0
   12.3806   -6.3890    0.0000 N   0  0  0  0  0  0  0  0  0  0  0  0
    9.2926    0.2619    0.0000 N   0  0  0  0  0  0  0  0  0  0  0  0
    3.1485    7.0391    0.0000 N   0  0  0  0  0  0  0  0  0  0  0  0
    4.3338    5.7884    0.0000 N   0  0  0  0  0  0  0  0  0  0  0  0
   16.8613   -1.8132    0.0000 N   0  0  0  0  0  0  0  0  0  0  0  0
    8.1907    1.4900    0.0000 N   0  0  0  0  0  0  0  0  0  0  0  0
    5.1795    3.7761    0.0000 N   0  0  0  0  0  0  0  0  0  0  0  0
    6.2814    2.5480    0.0000 N   0  0  0  0  0  0  0  0  0  0  0  0
   11.3170   -7.3433    0.0000 N   0  0  0  0  0  0  0  0  0  0  0  0
   12.6753   -7.7873    0.0000 N   0  0  0  0  0  0  0  0  0  0  0  0
    3.8596    0.7098    0.0000 N   0  0  0  0  0  0  0  0  0  0  0  0
    6.7335    6.3823    0.0000 N   0  0  0  0  0  0  0  0  0  0  0  0
    5.9507    7.4636    0.0000 N   0  0  0  0  0  0  0  0  0  0  0  0
   13.9701   -3.9516    0.0000 C   0  0  1  0  0  0  0  0  0  0  0  0
   14.3043   -4.7058    0.0000 C   0  0  0  0  0  0  0  0  0  0  0  0
   13.6903   -5.2569    0.0000 C   0  0  0  0  0  0  0  0  0  0  0  0
   12.9766   -4.8431    0.0000 C   0  0  0  0  0  0  0  0  0  0  0  0
   12.5984   -3.4224    0.0000 C   0  0  0  0  0  0  0  0  0  0  0  0
   11.7912   -3.5925    0.0000 C   0  0  2  0  0  0  0  0  0  0  0  0
   14.3838   -3.2378    0.0000 C   0  0  0  0  0  0  0  0  0  0  0  0
   11.5349   -4.3767    0.0000 C   0  0  0  0  0  0  0  0  0  0  0  0
   12.0859   -4.9907    0.0000 C   0  0  0  0  0  0  0  0  0  0  0  0
    9.8819   -2.5345    0.0000 C   0  0  2  0  0  0  0  0  0  0  0  0
   10.4330   -3.1486    0.0000 C   0  0  0  0  0  0  0  0  0  0  0  0
    9.0747   -2.7046    0.0000 C   0  0  0  0  0  0  0  0  0  0  0  0
    8.8184   -3.4889    0.0000 C   0  0  0  0  0  0  0  0  0  0  0  0
   11.8295   -5.7750    0.0000 C   0  0  0  0  0  0  0  0  0  0  0  0
    8.0112   -3.6590    0.0000 C   0  0  0  0  0  0  0  0  0  0  0  0
    9.3694   -4.1029    0.0000 C   0  0  0  0  0  0  0  0  0  0  0  0
    9.5873   -1.1363    0.0000 C   0  0  0  0  0  0  0  0  0  0  0  0
    9.8436   -0.3521    0.0000 C   0  0  1  0  0  0  0  0  0  0  0  0
   10.6509   -0.1820    0.0000 C   0  0  0  0  0  0  0  0  0  0  0  0
   16.4476   -2.5269    0.0000 C   0  0  0  0  0  0  0  0  0  0  0  0
    2.9756    6.2324    0.0000 C   0  0  1  0  0  0  0  0  0  0  0  0
   12.0091   -0.6259    0.0000 C   0  0  0  0  0  0  0  0  0  0  0  0
    8.9979    1.6602    0.0000 C   0  0  2  0  0  0  0  0  0  0  0  0
    9.5489    1.0461    0.0000 C   0  0  0  0  0  0  0  0  0  0  0  0
   12.1242   -7.1732    0.0000 C   0  0  0  0  0  0  0  0  0  0  0  0
    2.1549    6.1475    0.0000 C   0  0  0  0  0  0  0  0  0  0  0  0
    4.8848    5.1744    0.0000 C   0  0  1  0  0  0  0  0  0  0  0  0
    4.9232    2.9920    0.0000 C   0  0  1  0  0  0  0  0  0  0  0  0
    1.8207    6.9019    0.0000 C   0  0  0  0  0  0  0  0  0  0  0  0
    9.2542    2.4444    0.0000 C   0  0  0  0  0  0  0  0  0  0  0  0
    4.1159    2.8219    0.0000 C   0  0  0  0  0  0  0  0  0  0  0  0
    3.5266    5.6183    0.0000 C   0  0  0  0  0  0  0  0  0  0  0  0
    2.4348    7.4528    0.0000 C   0  0  0  0  0  0  0  0  0  0  0  0
    5.6921    5.3445    0.0000 C   0  0  0  0  0  0  0  0  0  0  0  0
    6.8324    1.9340    0.0000 C   0  0  2  0  0  0  0  0  0  0  0  0
    4.6285    4.3902    0.0000 C   0  0  0  0  0  0  0  0  0  0  0  0
   12.1793   -1.4332    0.0000 C   0  0  0  0  0  0  0  0  0  0  0  0
   12.8164   -0.4557    0.0000 C   0  0  0  0  0  0  0  0  0  0  0  0
   11.8389    0.1814    0.0000 C   0  0  0  0  0  0  0  0  0  0  0  0
    3.8596    2.0376    0.0000 C   0  0  0  0  0  0  0  0  0  0  0  0
    5.4742    2.3779    0.0000 C   0  0  0  0  0  0  0  0  0  0  0  0
    7.6397    2.1041    0.0000 C   0  0  0  0  0  0  0  0  0  0  0  0
   10.0615    2.6145    0.0000 C   0  0  0  0  0  0  0  0  0  0  0  0
    3.0790    1.7862    0.0000 C   0  0  0  0  0  0  0  0  0  0  0  0
    5.9484    6.1287    0.0000 C   0  0  0  0  0  0  0  0  0  0  0  0
    4.3411    1.3737    0.0000 C   0  0  0  0  0  0  0  0  0  0  0  0
    3.0790    0.9612    0.0000 C   0  0  0  0  0  0  0  0  0  0  0  0
    6.5761    1.1498    0.0000 C   0  0  0  0  0  0  0  0  0  0  0  0
    2.3645    2.1987    0.0000 C   0  0  0  0  0  0  0  0  0  0  0  0
   10.3178    3.3987    0.0000 C   0  0  0  0  0  0  0  0  0  0  0  0
   10.6125    2.0005    0.0000 C   0  0  0  0  0  0  0  0  0  0  0  0
    2.3645    0.5487    0.0000 C   0  0  0  0  0  0  0  0  0  0  0  0
    5.4646    6.7970    0.0000 C   0  0  0  0  0  0  0  0  0  0  0  0
    1.6500    1.7862    0.0000 C   0  0  0  0  0  0  0  0  0  0  0  0
    1.6500    0.9612    0.0000 C   0  0  0  0  0  0  0  0  0  0  0  0
   11.1251    3.5688    0.0000 C   0  0  0  0  0  0  0  0  0  0  0  0
   11.4198    2.1706    0.0000 C   0  0  0  0  0  0  0  0  0  0  0  0
    6.7349    7.2073    0.0000 C   0  0  0  0  0  0  0  0  0  0  0  0
   11.6761    2.9548    0.0000 C   0  0  0  0  0  0  0  0  0  0  0  0
  1 37  2  0  0  0  0
  2 39  2  0  0  0  0
  3 43  2  0  0  0  0
  4 51  1  0  0  0  0
  4 54  1  0  0  0  0
  5 49  2  0  0  0  0
  6 52  2  0  0  0  0
  7 56  2  0  0  0  0
  8 64  2  0  0  0  0
  9 65  2  0  0  0  0
 10 68  2  0  0  0  0
 11 73  2  0  0  0  0
 12 74  2  0  0  0  0
 13 80  1  0  0  0  0
 14 91  1  0  0  0  0
 15 33  1  0  0  0  0
 15 36  1  0  0  0  0
 15 37  1  0  0  0  0
 38 16  1  6  0  0  0
 16 43  1  0  0  0  0
 17 19  1  0  0  0  0
 17 39  1  0  0  0  0
 42 18  1  6  0  0  0
 18 49  1  0  0  0  0
 19 52  1  0  0  0  0
 20 46  1  0  0  0  0
 20 57  2  0  0  0  0
 50 21  1  6  0  0  0
 21 56  1  0  0  0  0
 22 53  1  0  0  0  0
 22 65  1  0  0  0  0
 59 23  1  1  0  0  0
 23 64  1  0  0  0  0
 24 52  1  0  0  0  0
 55 25  1  1  0  0  0
 25 74  1  0  0  0  0
 60 26  1  6  0  0  0
 26 68  1  0  0  0  0
 67 27  1  6  0  0  0
 27 73  1  0  0  0  0
 28 57  1  0  0  0  0
 29 57  1  0  0  0  0
 30 78  1  0  0  0  0
 30 79  1  0  0  0  0
 31 77  1  0  0  0  0
 31 90  1  0  0  0  0
 32 85  1  0  0  0  0
 32 90  2  0  0  0  0
 33 34  1  0  0  0  0
 33 39  1  6  0  0  0
 34 35  1  0  0  0  0
 35 36  1  0  0  0  0
 37 38  1  0  0  0  0
 38 40  1  0  0  0  0
 40 41  1  0  0  0  0
 41 46  1  0  0  0  0
 42 43  1  0  0  0  0
 42 44  1  0  0  0  0
 44 45  1  0  0  0  0
 45 47  1  0  0  0  0
 45 48  1  0  0  0  0
 49 50  1  0  0  0  0
 50 51  1  0  0  0  0
 53 58  1  0  0  0  0
 53 64  1  6  0  0  0
 54 69  1  0  0  0  0
 54 70  1  0  0  0  0
 54 71  1  0  0  0  0
 55 56  1  0  0  0  0
 55 62  1  0  0  0  0
 58 61  1  0  0  0  0
 59 66  1  0  0  0  0
 59 68  1  0  0  0  0
 60 63  1  0  0  0  0
 60 73  1  0  0  0  0
 61 65  1  0  0  0  0
 62 75  1  0  0  0  0
 63 72  1  0  0  0  0
 66 77  1  0  0  0  0
 67 74  1  0  0  0  0
 67 80  1  0  0  0  0
 72 76  1  0  0  0  0
 72 78  2  0  0  0  0
 75 82  2  0  0  0  0
 75 83  1  0  0  0  0
 76 79  1  0  0  0  0
 76 81  2  0  0  0  0
 77 85  2  0  0  0  0
 79 84  2  0  0  0  0
 81 86  1  0  0  0  0
 82 88  1  0  0  0  0
 83 89  2  0  0  0  0
 84 87  1  0  0  0  0
 86 87  2  0  0  0  0
 88 91  2  0  0  0  0
 89 91  1  0  0  0  0
M  END
> <DATABASE_ID>
DB00014

> <DATABASE_NAME>
drugbank

> <SMILES>
CC(C)C[C@H](NC(=O)[C@@H](COC(C)(C)C)NC(=O)[C@H](CC1=CC=C(O)C=C1)NC(=O)[C@H](CO)NC(=O)[C@H](CC1=CNC2=CC=CC=C12)NC(=O)[C@H](CC1=CN=CN1)NC(=O)[C@@H]1CCC(=O)N1)C(=O)N[C@@H](CCCN=C(N)N)C(=O)N1CCC[C@H]1C(=O)NNC(N)=O

> <INCHI_IDENTIFIER>
InChI=1S/C59H84N18O14/c1-31(2)22-40(49(82)68-39(12-8-20-64-57(60)61)56(89)77-21-9-13-46(77)55(88)75-76-58(62)90)69-54(87)45(29-91-59(3,4)5)74-50(83)41(23-32-14-16-35(79)17-15-32)70-53(86)44(28-78)73-51(84)42(24-33-26-65-37-11-7-6-10-36(33)37)71-52(85)43(25-34-27-63-30-66-34)72-48(81)38-18-19-47(80)67-38/h6-7,10-11,14-17,26-27,30-31,38-46,65,78-79H,8-9,12-13,18-25,28-29H2,1-5H3,(H,63,66)(H,67,80)(H,68,82)(H,69,87)(H,70,86)(H,71,85)(H,72,81)(H,73,84)(H,74,83)(H,75,88)(H4,60,61,64)(H3,62,76,90)/t38-,39-,40-,41-,42-,43-,44-,45+,46-/m0/s1

> <INCHI_KEY>
BLCLNMBMMGCOAS-URPVMXJPSA-N

> <FORMULA>
C59H84N18O14

> <MOLECULAR_WEIGHT>
1269.4105

> <EXACT_MASS>
1268.641439486

> <JCHEM_ACCEPTOR_COUNT>
18

> <JCHEM_AVERAGE_POLARIZABILITY>
131.22118283534343

> <JCHEM_BIOAVAILABILITY>
0

> <JCHEM_DONOR_COUNT>
17

> <JCHEM_FORMAL_CHARGE>
0

> <JCHEM_GHOSE_FILTER>
0

> <JCHEM_IUPAC>
(2S)-1-[(2S)-2-[(2S)-2-[(2R)-3-(tert-butoxy)-2-[(2S)-2-[(2S)-3-hydroxy-2-[(2S)-2-[(2S)-3-(1H-imidazol-5-yl)-2-{[(2S)-5-oxopyrrolidin-2-yl]formamido}propanamido]-3-(1H-indol-3-yl)propanamido]propanamido]-3-(4-hydroxyphenyl)propanamido]propanamido]-4-methylpentanamido]-5-[(diaminomethylidene)amino]pentanoyl]-N-(carbamoylamino)pyrrolidine-2-carboxamide

> <ALOGPS_LOGP>
0.30

> <JCHEM_LOGP>
-5.17557331843203

> <ALOGPS_LOGS>
-4.65

> <JCHEM_MDDR_LIKE_RULE>
1

> <JCHEM_NUMBER_OF_RINGS>
6

> <JCHEM_PHYSIOLOGICAL_CHARGE>
2

> <JCHEM_PKA>
9.818594492171766

> <JCHEM_PKA_STRONGEST_ACIDIC>
9.267832115311407

> <JCHEM_PKA_STRONGEST_BASIC>
10.816089522841512

> <JCHEM_POLAR_SURFACE_AREA>
495.8899999999997

> <JCHEM_REFRACTIVITY>
325.83880000000016

> <JCHEM_ROTATABLE_BOND_COUNT>
33

> <JCHEM_RULE_OF_FIVE>
0

> <ALOGPS_SOLUBILITY>
2.83e-02 g/l

> <JCHEM_TRADITIONAL_IUPAC>
(2S)-1-[(2S)-2-[(2S)-2-[(2R)-3-(tert-butoxy)-2-[(2S)-2-[(2S)-3-hydroxy-2-[(2S)-2-[(2S)-3-(3H-imidazol-4-yl)-2-{[(2S)-5-oxopyrrolidin-2-yl]formamido}propanamido]-3-(1H-indol-3-yl)propanamido]propanamido]-3-(4-hydroxyphenyl)propanamido]propanamido]-4-methylpentanamido]-5-[(diaminomethylidene)amino]pentanoyl]-N-(carbamoylamino)pyrrolidine-2-carboxamide

> <JCHEM_VEBER_RULE>
0

> <DRUGBANK_ID>
DB00014

> <SECONDARY_ACCESSION_NUMBERS>
BTD00113; BIOD00113

> <DRUG_GROUPS>
approved

> <GENERIC_NAME>
Goserelin

> <PRODUCTS>
Zoladex; Zoladex Inj Depot 3.6mg; Zoladex LA Inj Depot 10.8mg

> <SALTS>
Goserelin acetate

$$$$
[NO NAME]
  Mrv0541 04221221522D          
Created with ChemWriter - http://chemwriter.com
 74 77  0  0  1  0            999 V2000
    0.0000   -7.8646    0.0000 N   0  0  0  0  0  0  0  0  0  0  0  0
    0.6741   -7.4601    0.0000 C   0  0  0  0  0  0  0  0  0  0  0  0
    1.3932   -7.8646    0.0000 C   0  0  0  0  0  0  0  0  0  0  0  0
    2.1122   -7.4601    0.0000 N   0  0  0  0  0  0  0  0  0  0  0  0
    2.8313   -7.8646    0.0000 C   0  0  0  0  0  0  0  0  0  0  0  0
    3.5503   -7.4601    0.0000 C   0  0  1  0  0  0  0  0  0  0  0  0
    4.2693   -7.8646    0.0000 N   0  0  0  0  0  0  0  0  0  0  0  0
    4.9435   -7.4601    0.0000 C   0  0  0  0  0  0  0  0  0  0  0  0
    5.6625   -7.8646    0.0000 O   0  0  0  0  0  0  0  0  0  0  0  0
    0.6741   -6.6512    0.0000 O   0  0  0  0  0  0  0  0  0  0  0  0
    2.8313   -8.7184    0.0000 O   0  0  0  0  0  0  0  0  0  0  0  0
    3.5503   -6.6512    0.0000 C   0  0  0  0  0  0  0  0  0  0  0  0
    2.8313   -6.2467    0.0000 C   0  0  0  0  0  0  0  0  0  0  0  0
    2.8313   -5.4378    0.0000 C   0  0  0  0  0  0  0  0  0  0  0  0
    2.1122   -5.0333    0.0000 N   0  0  0  0  0  0  0  0  0  0  0  0
    4.9435   -6.6512    0.0000 C   0  0  2  0  0  0  0  0  0  0  0  0
    4.3143   -6.1568    0.0000 C   0  0  0  0  0  0  0  0  0  0  0  0
    5.6176   -6.1568    0.0000 N   0  0  0  0  0  0  0  0  0  0  0  0
    4.5390   -5.3929    0.0000 C   0  0  0  0  0  0  0  0  0  0  0  0
    5.3479   -5.3929    0.0000 C   0  0  0  0  0  0  0  0  0  0  0  0
    6.3366   -6.5613    0.0000 C   0  0  0  0  0  0  0  0  0  0  0  0
    7.0557   -6.1568    0.0000 C   0  0  1  0  0  0  0  0  0  0  0  0
    7.7747   -6.5613    0.0000 N   0  0  0  0  0  0  0  0  0  0  0  0
    8.4488   -6.1568    0.0000 C   0  0  0  0  0  0  0  0  0  0  0  0
    9.1678   -6.5613    0.0000 C   0  0  1  0  0  0  0  0  0  0  0  0
    9.8869   -6.1568    0.0000 N   0  0  0  0  0  0  0  0  0  0  0  0
    6.3366   -7.4152    0.0000 O   0  0  0  0  0  0  0  0  0  0  0  0
    7.0557   -5.3479    0.0000 C   0  0  0  0  0  0  0  0  0  0  0  0
    6.3366   -4.9435    0.0000 S   0  0  0  0  0  0  0  0  0  0  0  0
    6.3366   -4.1345    0.0000 S   0  0  0  0  0  0  0  0  0  0  0  0
    8.4488   -5.3479    0.0000 O   0  0  0  0  0  0  0  0  0  0  0  0
    9.1678   -7.4152    0.0000 C   0  0  0  0  0  0  0  0  0  0  0  0
    9.8869   -7.8197    0.0000 C   0  0  0  0  0  0  0  0  0  0  0  0
    9.8869   -8.6286    0.0000 O   0  0  0  0  0  0  0  0  0  0  0  0
   10.6060   -7.4152    0.0000 N   0  0  0  0  0  0  0  0  0  0  0  0
    9.8869   -5.3479    0.0000 C   0  0  0  0  0  0  0  0  0  0  0  0
   10.6060   -4.9435    0.0000 C   0  0  2  0  0  0  0  0  0  0  0  0
    9.1678   -4.9435    0.0000 O   0  0  0  0  0  0  0  0  0  0  0  0
   11.3250   -5.3479    0.0000 C   0  0  0  0  0  0  0  0  0  0  0  0
   12.0441   -4.9435    0.0000 C   0  0  0  0  0  0  0  0  0  0  0  0
   12.7631   -5.3479    0.0000 C   0  0  0  0  0  0  0  0  0  0  0  0
   13.4822   -4.9435    0.0000 N   0  0  0  0  0  0  0  0  0  0  0  0
   12.7631   -6.2018    0.0000 O   0  0  0  0  0  0  0  0  0  0  0  0
   10.6060   -4.1345    0.0000 N   0  0  0  0  0  0  0  0  0  0  0  0
   11.3250   -2.8762    0.0000 C   0  0  0  0  0  0  0  0  0  0  0  0
   11.3250   -3.7300    0.0000 C   0  0  0  0  0  0  0  0  0  0  0  0
   10.6060   -2.4717    0.0000 C   0  0  0  0  0  0  0  0  0  0  0  0
    9.8869   -2.8762    0.0000 C   0  0  1  0  0  0  0  0  0  0  0  0
    9.8869   -3.7300    0.0000 C   0  0  0  0  0  0  0  0  0  0  0  0
   12.7631   -2.8762    0.0000 C   0  0  0  0  0  0  0  0  0  0  0  0
   12.7631   -3.7300    0.0000 C   0  0  0  0  0  0  0  0  0  0  0  0
   12.0441   -2.4717    0.0000 C   0  0  0  0  0  0  0  0  0  0  0  0
   12.0441   -4.1345    0.0000 C   0  0  0  0  0  0  0  0  0  0  0  0
    7.0557   -2.8762    0.0000 N   0  0  0  0  0  0  0  0  0  0  0  0
    6.3366   -2.4717    0.0000 C   0  0  0  0  0  0  0  0  0  0  0  0
    5.6176   -2.8762    0.0000 C   0  0  0  0  0  0  0  0  0  0  0  0
    5.6176   -3.7300    0.0000 C   0  0  0  0  0  0  0  0  0  0  0  0
    8.4488   -2.8762    0.0000 C   0  0  0  0  0  0  0  0  0  0  0  0
    8.4488   -3.7300    0.0000 O   0  0  0  0  0  0  0  0  0  0  0  0
    7.7747   -2.4717    0.0000 C   0  0  2  0  0  0  0  0  0  0  0  0
    9.1678   -2.4717    0.0000 N   0  0  0  0  0  0  0  0  0  0  0  0
    9.1678   -4.1345    0.0000 O   0  0  0  0  0  0  0  0  0  0  0  0
    7.7747   -1.6628    0.0000 C   0  0  0  0  0  0  0  0  0  0  0  0
    9.1678   -1.6628    0.0000 C   0  0  0  0  0  0  0  0  0  0  0  0
    8.4488   -1.2583    0.0000 C   0  0  0  0  0  0  0  0  0  0  0  0
    9.8869   -1.2583    0.0000 C   0  0  0  0  0  0  0  0  0  0  0  0
    9.8869   -0.4045    0.0000 C   0  0  0  0  0  0  0  0  0  0  0  0
    8.4488   -0.4045    0.0000 C   0  0  0  0  0  0  0  0  0  0  0  0
    9.1678    0.0000    0.0000 C   0  0  0  0  0  0  0  0  0  0  0  0
    6.3366   -1.6628    0.0000 O   0  0  0  0  0  0  0  0  0  0  0  0
   10.6060    0.0000    0.0000 O   0  0  0  0  0  0  0  0  0  0  0  0
    1.3932   -5.4378    0.0000 C   0  0  0  0  0  0  0  0  0  0  0  0
    1.3932   -6.2467    0.0000 N   0  0  0  0  0  0  0  0  0  0  0  0
    0.6741   -5.0333    0.0000 N   0  0  0  0  0  0  0  0  0  0  0  0
  1  2  1  0  0  0  0
  2  3  1  0  0  0  0
  2 10  2  0  0  0  0
  3  4  1  0  0  0  0
  4  5  1  0  0  0  0
  5  6  1  0  0  0  0
  5 11  2  0  0  0  0
  6  7  1  0  0  0  0
  6 12  1  6  0  0  0
  7  8  1  0  0  0  0
  8  9  2  0  0  0  0
 16  8  1  6  0  0  0
 12 13  1  0  0  0  0
 13 14  1  0  0  0  0
 14 15  1  0  0  0  0
 15 72  1  0  0  0  0
 16 17  1  0  0  0  0
 16 18  1  0  0  0  0
 17 19  1  0  0  0  0
 18 20  1  0  0  0  0
 18 21  1  0  0  0  0
 19 20  1  0  0  0  0
 22 21  1  6  0  0  0
 21 27  2  0  0  0  0
 22 23  1  0  0  0  0
 22 28  1  0  0  0  0
 23 24  1  0  0  0  0
 24 25  1  0  0  0  0
 24 31  2  0  0  0  0
 25 26  1  0  0  0  0
 25 32  1  1  0  0  0
 26 36  1  0  0  0  0
 28 29  1  0  0  0  0
 29 30  1  0  0  0  0
 30 57  1  0  0  0  0
 32 33  1  0  0  0  0
 33 34  2  0  0  0  0
 33 35  1  0  0  0  0
 36 37  1  0  0  0  0
 36 38  2  0  0  0  0
 37 39  1  1  0  0  0
 37 44  1  0  0  0  0
 39 40  1  0  0  0  0
 40 41  1  0  0  0  0
 41 42  1  0  0  0  0
 41 43  2  0  0  0  0
 44 49  1  0  0  0  0
 45 47  1  0  0  0  0
 45 52  1  0  0  0  0
 45 46  2  0  0  0  0
 46 53  1  0  0  0  0
 48 47  1  1  0  0  0
 48 61  1  0  0  0  0
 48 49  1  0  0  0  0
 49 62  2  0  0  0  0
 50 51  1  0  0  0  0
 50 52  2  0  0  0  0
 51 53  2  0  0  0  0
 54 55  1  0  0  0  0
 54 60  1  0  0  0  0
 55 56  1  0  0  0  0
 55 70  2  0  0  0  0
 56 57  1  0  0  0  0
 58 59  2  0  0  0  0
 58 60  1  0  0  0  0
 58 61  1  0  0  0  0
 60 63  1  1  0  0  0
 63 65  1  0  0  0  0
 64 66  2  0  0  0  0
 64 65  1  0  0  0  0
 65 68  2  0  0  0  0
 66 67  1  0  0  0  0
 67 69  2  0  0  0  0
 67 71  1  0  0  0  0
 68 69  1  0  0  0  0
 72 73  2  3  0  0  0
 72 74  1  0  0  0  0
M  END
> <DATABASE_ID>
DB00035

> <DATABASE_NAME>
drugbank

> <SMILES>
NC(=O)CC[C@@H]1NC(=O)[C@H](CC2=CC=CC=C2)NC(=O)[C@H](CC2=CC=C(O)C=C2)NC(=O)CCSSC[C@H](NC(=O)[C@H](CC(N)=O)NC1=O)C(=O)N1CCC[C@H]1C(=O)N[C@@H](CCCNC(N)=N)C(=O)NCC(N)=O

> <INCHI_IDENTIFIER>
InChI=1S/C46H64N14O12S2/c47-35(62)15-14-29-40(67)58-32(22-36(48)63)43(70)59-33(45(72)60-18-5-9-34(60)44(71)56-28(8-4-17-52-46(50)51)39(66)53-23-37(49)64)24-74-73-19-16-38(65)54-30(21-26-10-12-27(61)13-11-26)41(68)57-31(42(69)55-29)20-25-6-2-1-3-7-25/h1-3,6-7,10-13,28-34,61H,4-5,8-9,14-24H2,(H2,47,62)(H2,48,63)(H2,49,64)(H,53,66)(H,54,65)(H,55,69)(H,56,71)(H,57,68)(H,58,67)(H,59,70)(H4,50,51,52)/t28-,29-,30-,31-,32-,33-,34-/m0/s1

> <INCHI_KEY>
NFLWUMRGJYTJIN-NXBWRCJVSA-N

> <FORMULA>
C46H64N14O12S2

> <MOLECULAR_WEIGHT>
1069.217

> <EXACT_MASS>
1068.426954962

> <JCHEM_ACCEPTOR_COUNT>
15

> <JCHEM_AVERAGE_POLARIZABILITY>
106.19431389130182

> <JCHEM_BIOAVAILABILITY>
0

> <JCHEM_DONOR_COUNT>
14

> <JCHEM_FORMAL_CHARGE>
0

> <JCHEM_GHOSE_FILTER>
0

> <JCHEM_IUPAC>
(2S)-2-{[(2S)-1-[(4R,7S,10S,13S,16S)-13-benzyl-10-(2-carbamoylethyl)-7-(carbamoylmethyl)-16-[(4-hydroxyphenyl)methyl]-6,9,12,15,18-pentaoxo-1,2-dithia-5,8,11,14,17-pentaazacycloicosane-4-carbonyl]pyrrolidin-2-yl]formamido}-5-carbamimidamido-N-(carbamoylmethyl)pentanamide

> <ALOGPS_LOGP>
-1.04

> <JCHEM_LOGP>
-6.128255121522684

> <ALOGPS_LOGS>
-3.99

> <JCHEM_MDDR_LIKE_RULE>
1

> <JCHEM_NUMBER_OF_RINGS>
4

> <JCHEM_PHYSIOLOGICAL_CHARGE>
1

> <JCHEM_PKA>
11.344258946590854

> <JCHEM_PKA_STRONGEST_ACIDIC>
9.496980961426173

> <JCHEM_PKA_STRONGEST_BASIC>
11.771940185101531

> <JCHEM_POLAR_SURFACE_AREA>
435.40999999999985

> <JCHEM_REFRACTIVITY>
279.7799

> <JCHEM_ROTATABLE_BOND_COUNT>
19

> <JCHEM_RULE_OF_FIVE>
0

> <ALOGPS_SOLUBILITY>
1.10e-01 g/l

> <JCHEM_TRADITIONAL_IUPAC>
desmopressin

> <JCHEM_VEBER_RULE>
0

> <DRUGBANK_ID>
DB00035

> <SECONDARY_ACCESSION_NUMBERS>
BTD00112; BTD00061; BIOD00112; BIOD00061

> <DRUG_GROUPS>
approved

> <GENERIC_NAME>
Desmopressin

> <SYNONYMS>
1-(3-mercaptopropionic acid)-8-D-arginine-vasopressin; 1-deamino-8-D-arginine vasopressin; 1-Desamino-8-D-arginine vasopressin; DDAVP; Desmopresina; Desmopressine; Desmopressinum

> <PRODUCTS>
Apo-desmopressin; Ddavp; Ddavp Inj 4mcg/ml; Ddavp Melt; Ddavp Rhinal Tube; Ddavp Rhinyle; Ddavp Spray; Ddavp Tablets 0.1mg; Ddavp Tablets 0.2mg; Desmopressin; Desmopressin Acetate; Desmopressin Spray; Desmopressin Tablets; Minirin; Nocdurna; Nu-desmopressin Spray; Octostim Liq Inj. 15mcg/ml; Octostim Spray; PMS-desmopressin; Stimate; Teva-desmopressin

> <INTERNATIONAL_BRANDS>
Adiuretin; DesmoMelt

> <SALTS>
Desmopressin acetate; Desmopressin acetate trihydrate

$$$$
[NO NAME]
  Mrv0541 04221219592D          
Created with ChemWriter - http://chemwriter.com
102107  0  0  1  0            999 V2000
    2.6200   -4.4093    0.0000 C   0  0  0  0  0  0  0  0  0  0  0  0
    3.3275   -3.9848    0.0000 C   0  0  0  0  0  0  0  0  0  0  0  0
    1.9127   -3.9848    0.0000 C   0  0  0  0  0  0  0  0  0  0  0  0
    3.3275   -3.1360    0.0000 C   0  0  0  0  0  0  0  0  0  0  0  0
    1.9127   -3.1360    0.0000 C   0  0  0  0  0  0  0  0  0  0  0  0
    2.6200   -2.7115    0.0000 C   0  0  0  0  0  0  0  0  0  0  0  0
    2.6200   -5.1875    0.0000 C   0  0  0  0  0  0  0  0  0  0  0  0
    3.3275   -5.6120    0.0000 C   0  0  0  0  0  0  0  0  0  0  0  0
    4.0350   -4.4093    0.0000 C   0  0  0  0  0  0  0  0  0  0  0  0
    4.0350   -5.1875    0.0000 C   0  0  0  0  0  0  0  0  0  0  0  0
    4.0350   -6.8146    0.0000 C   0  0  2  0  0  0  0  0  0  0  0  0
    4.0350   -7.6636    0.0000 N   0  0  0  0  0  0  0  0  0  0  0  0
    3.3275   -6.3901    0.0000 C   0  0  0  0  0  0  0  0  0  0  0  0
    5.4498   -6.8146    0.0000 N   0  0  0  0  0  0  0  0  0  0  0  0
    4.7424   -6.3901    0.0000 C   0  0  0  0  0  0  0  0  0  0  0  0
    6.2280   -6.3901    0.0000 C   0  0  1  0  0  0  0  0  0  0  0  0
    6.8647   -6.8146    0.0000 C   0  0  0  0  0  0  0  0  0  0  0  0
    6.8647   -7.6636    0.0000 O   0  0  0  0  0  0  0  0  0  0  0  0
    6.2280   -5.6120    0.0000 C   0  0  0  0  0  0  0  0  0  0  0  0
    6.8647   -5.1875    0.0000 C   0  0  0  0  0  0  0  0  0  0  0  0
    7.5721   -6.3901    0.0000 N   0  0  0  0  0  0  0  0  0  0  0  0
    7.5721   -5.6120    0.0000 C   0  0  0  0  0  0  0  0  0  0  0  0
    6.8647   -4.4093    0.0000 C   0  0  0  0  0  0  0  0  0  0  0  0
    7.5721   -3.9848    0.0000 C   0  0  0  0  0  0  0  0  0  0  0  0
    8.3503   -5.1875    0.0000 C   0  0  0  0  0  0  0  0  0  0  0  0
    8.3503   -4.4093    0.0000 C   0  0  0  0  0  0  0  0  0  0  0  0
    8.3503   -6.8146    0.0000 C   0  0  2  0  0  0  0  0  0  0  0  0
    8.3503   -7.6636    0.0000 C   0  0  0  0  0  0  0  0  0  0  0  0
    8.9870   -6.3901    0.0000 C   0  0  0  0  0  0  0  0  0  0  0  0
    9.6945   -6.8146    0.0000 N   0  0  0  0  0  0  0  0  0  0  0  0
    8.9870   -8.0880    0.0000 C   0  0  0  0  0  0  0  0  0  0  0  0
    9.6945   -7.6636    0.0000 C   0  0  0  0  0  0  0  0  0  0  0  0
    8.9870   -8.8662    0.0000 C   0  0  0  0  0  0  0  0  0  0  0  0
    9.6945   -9.2906    0.0000 N   0  0  0  0  0  0  0  0  0  0  0  0
   10.4726   -8.0880    0.0000 C   0  0  0  0  0  0  0  0  0  0  0  0
   10.4726   -8.8662    0.0000 C   0  0  0  0  0  0  0  0  0  0  0  0
   10.4726   -6.3901    0.0000 C   0  0  2  0  0  0  0  0  0  0  0  0
   11.1093   -6.8146    0.0000 C   0  0  0  0  0  0  0  0  0  0  0  0
   11.1093   -7.6636    0.0000 O   0  0  0  0  0  0  0  0  0  0  0  0
   11.8168   -6.3901    0.0000 N   0  0  0  0  0  0  0  0  0  0  0  0
   12.5242   -6.8146    0.0000 C   0  0  1  0  0  0  0  0  0  0  0  0
   12.5242   -7.6636    0.0000 C   0  0  0  0  0  0  0  0  0  0  0  0
   13.3024   -6.3901    0.0000 C   0  0  0  0  0  0  0  0  0  0  0  0
   13.9391   -6.8146    0.0000 N   0  0  0  0  0  0  0  0  0  0  0  0
   13.3024   -8.0880    0.0000 C   0  0  0  0  0  0  0  0  0  0  0  0
    4.7424   -5.6120    0.0000 O   0  0  0  0  0  0  0  0  0  0  0  0
    8.9870   -3.9848    0.0000 Cl  0  0  0  0  0  0  0  0  0  0  0  0
    8.9870   -5.6120    0.0000 O   0  0  0  0  0  0  0  0  0  0  0  0
   10.4726   -5.6120    0.0000 C   0  0  0  0  0  0  0  0  0  0  0  0
   11.1093   -5.1875    0.0000 O   0  0  0  0  0  0  0  0  0  0  0  0
   13.3024   -5.6120    0.0000 O   0  0  0  0  0  0  0  0  0  0  0  0
   14.7173   -8.0880    0.0000 C   0  0  0  0  0  0  0  0  0  0  0  0
   14.7173   -8.8662    0.0000 C   0  0  0  0  0  0  0  0  0  0  0  0
   13.9391   -7.6636    0.0000 C   0  0  0  0  0  0  0  0  0  0  0  0
   13.9391   -9.2906    0.0000 C   0  0  0  0  0  0  0  0  0  0  0  0
   13.3024   -8.8662    0.0000 C   0  0  0  0  0  0  0  0  0  0  0  0
   15.4247   -9.2906    0.0000 O   0  0  0  0  0  0  0  0  0  0  0  0
   14.7173   -6.3901    0.0000 C   0  0  1  0  0  0  0  0  0  0  0  0
   15.4247   -6.8146    0.0000 C   0  0  0  0  0  0  0  0  0  0  0  0
   15.4247   -7.6636    0.0000 O   0  0  0  0  0  0  0  0  0  0  0  0
   16.1321   -6.3901    0.0000 N   0  0  0  0  0  0  0  0  0  0  0  0
   16.8396   -6.8146    0.0000 C   0  0  1  0  0  0  0  0  0  0  0  0
   16.8396   -7.6636    0.0000 C   0  0  0  0  0  0  0  0  0  0  0  0
   17.5470   -6.3901    0.0000 C   0  0  0  0  0  0  0  0  0  0  0  0
   18.2544   -6.8146    0.0000 N   0  0  0  0  0  0  0  0  0  0  0  0
   18.9619   -6.3901    0.0000 C   0  0  2  0  0  0  0  0  0  0  0  0
   19.6693   -6.8146    0.0000 C   0  0  0  0  0  0  0  0  0  0  0  0
   19.6693   -7.6636    0.0000 O   0  0  0  0  0  0  0  0  0  0  0  0
   20.3767   -6.3901    0.0000 N   0  0  0  0  0  0  0  0  0  0  0  0
   20.3060   -8.1588    0.0000 O   0  0  0  0  0  0  0  0  0  0  0  0
   21.0134   -7.7343    0.0000 C   0  0  0  0  0  0  0  0  0  0  0  0
   17.5470   -8.0880    0.0000 C   0  0  0  0  0  0  0  0  0  0  0  0
   14.7173   -5.6120    0.0000 C   0  0  0  0  0  0  0  0  0  0  0  0
   15.4247   -5.1875    0.0000 C   0  0  0  0  0  0  0  0  0  0  0  0
   15.4247   -4.4093    0.0000 C   0  0  0  0  0  0  0  0  0  0  0  0
   16.1321   -3.9848    0.0000 N   0  0  0  0  0  0  0  0  0  0  0  0
   16.1321   -3.1360    0.0000 C   0  0  0  0  0  0  0  0  0  0  0  0
   15.4247   -2.7115    0.0000 O   0  0  0  0  0  0  0  0  0  0  0  0
   16.8396   -2.7115    0.0000 N   0  0  0  0  0  0  0  0  0  0  0  0
   17.5470   -5.6120    0.0000 O   0  0  0  0  0  0  0  0  0  0  0  0
   18.9619   -5.6120    0.0000 C   0  0  0  0  0  0  0  0  0  0  0  0
   19.6693   -5.1875    0.0000 C   0  0  0  0  0  0  0  0  0  0  0  0
   19.6693   -4.4093    0.0000 C   0  0  0  0  0  0  0  0  0  0  0  0
   20.3767   -3.9848    0.0000 N   0  0  0  0  0  0  0  0  0  0  0  0
   20.3767   -3.1360    0.0000 C   0  0  0  0  0  0  0  0  0  0  0  0
   19.6693   -2.7115    0.0000 N   0  0  0  0  0  0  0  0  0  0  0  0
   21.0842   -2.7115    0.0000 N   0  0  0  0  0  0  0  0  0  0  0  0
   21.0134   -6.8853    0.0000 C   0  0  2  0  0  0  0  0  0  0  0  0
   20.5890   -5.6120    0.0000 C   0  0  0  0  0  0  0  0  0  0  0  0
   21.6502   -6.3901    0.0000 C   0  0  0  0  0  0  0  0  0  0  0  0
   21.4379   -5.6120    0.0000 C   0  0  0  0  0  0  0  0  0  0  0  0
   21.7209   -8.1588    0.0000 N   0  0  0  0  0  0  0  0  0  0  0  0
   21.7209   -8.9369    0.0000 C   0  0  1  0  0  0  0  0  0  0  0  0
   22.4283   -9.3614    0.0000 C   0  0  0  0  0  0  0  0  0  0  0  0
   21.0134   -9.3614    0.0000 C   0  0  0  0  0  0  0  0  0  0  0  0
   23.1357   -8.9369    0.0000 O   0  0  0  0  0  0  0  0  0  0  0  0
   22.4283  -10.2103    0.0000 N   0  0  0  0  0  0  0  0  0  0  0  0
   17.5470   -8.8662    0.0000 C   0  0  0  0  0  0  0  0  0  0  0  0
   18.2544   -7.6636    0.0000 C   0  0  0  0  0  0  0  0  0  0  0  0
    4.7424   -8.0880    0.0000 C   0  0  0  0  0  0  0  0  0  0  0  0
    4.7424   -8.8662    0.0000 O   0  0  0  0  0  0  0  0  0  0  0  0
    5.4498   -7.6636    0.0000 C   0  0  0  0  0  0  0  0  0  0  0  0
  3  1  2  0  0  0  0
  7  1  1  0  0  0  0
  2  1  1  0  0  0  0
  4  2  2  0  0  0  0
  9  2  1  0  0  0  0
  5  3  1  0  0  0  0
  6  4  1  0  0  0  0
  6  5  2  0  0  0  0
  8  7  2  0  0  0  0
 13  8  1  0  0  0  0
 10  8  1  0  0  0  0
 10  9  2  0  0  0  0
 13 11  1  0  0  0  0
 15 11  1  0  0  0  0
 11 12  1  6  0  0  0
100 12  1  0  0  0  0
 15 14  1  0  0  0  0
 16 14  1  0  0  0  0
 46 15  2  0  0  0  0
 16 19  1  6  0  0  0
 17 16  1  0  0  0  0
 21 17  1  0  0  0  0
 18 17  2  0  0  0  0
 20 19  1  0  0  0  0
 23 20  2  0  0  0  0
 22 20  1  0  0  0  0
 27 21  1  0  0  0  0
 25 22  2  0  0  0  0
 24 23  1  0  0  0  0
 26 24  2  0  0  0  0
 26 25  1  0  0  0  0
 47 26  1  0  0  0  0
 29 27  1  0  0  0  0
 27 28  1  1  0  0  0
 31 28  1  0  0  0  0
 30 29  1  0  0  0  0
 48 29  2  0  0  0  0
 37 30  1  0  0  0  0
 33 31  2  0  0  0  0
 32 31  1  0  0  0  0
 35 32  2  0  0  0  0
 34 33  1  0  0  0  0
 36 34  2  0  0  0  0
 36 35  1  0  0  0  0
 38 37  1  0  0  0  0
 37 49  1  1  0  0  0
 40 38  1  0  0  0  0
 39 38  2  0  0  0  0
 41 40  1  0  0  0  0
 43 41  1  0  0  0  0
 41 42  1  6  0  0  0
 45 42  1  0  0  0  0
 44 43  1  0  0  0  0
 51 43  2  0  0  0  0
 58 44  1  0  0  0  0
 56 45  2  0  0  0  0
 54 45  1  0  0  0  0
 50 49  1  0  0  0  0
 54 52  2  0  0  0  0
 53 52  1  0  0  0  0
 55 53  2  0  0  0  0
 57 53  1  0  0  0  0
 56 55  1  0  0  0  0
 59 58  1  0  0  0  0
 58 73  1  6  0  0  0
 61 59  1  0  0  0  0
 60 59  2  0  0  0  0
 62 61  1  0  0  0  0
 64 62  1  0  0  0  0
 62 63  1  6  0  0  0
 72 63  1  0  0  0  0
 65 64  1  0  0  0  0
 80 64  2  0  0  0  0
 66 65  1  0  0  0  0
 67 66  1  0  0  0  0
 66 81  1  1  0  0  0
 69 67  1  0  0  0  0
 68 67  2  0  0  0  0
 88 69  1  0  0  0  0
 89 69  1  0  0  0  0
 71 70  2  0  0  0  0
 88 71  1  1  0  0  0
 92 71  1  0  0  0  0
 98 72  1  0  0  0  0
 72 99  1  0  0  0  0
 74 73  1  0  0  0  0
 75 74  1  0  0  0  0
 76 75  1  0  0  0  0
 77 76  1  0  0  0  0
 78 77  2  0  0  0  0
 79 77  1  0  0  0  0
 82 81  1  0  0  0  0
 83 82  1  0  0  0  0
 84 83  1  0  0  0  0
 85 84  1  0  0  0  0
 86 85  2  0  0  0  0
 87 85  1  0  0  0  0
 90 88  1  0  0  0  0
 91 89  1  0  0  0  0
 91 90  1  0  0  0  0
 93 92  1  0  0  0  0
 94 93  1  0  0  0  0
 93 95  1  1  0  0  0
 96 94  2  0  0  0  0
 97 94  1  0  0  0  0
101100  2  0  0  0  0
102100  1  0  0  0  0
M  END
> <DATABASE_ID>
DB00050

> <DATABASE_NAME>
drugbank

> <SMILES>
CC(C)C[C@H](NC(=O)[C@@H](CCCNC(N)=O)NC(=O)[C@H](CC1=CC=C(O)C=C1)NC(=O)[C@H](CO)NC(=O)[C@@H](CC1=CN=CC=C1)NC(=O)[C@@H](CC1=CC=C(Cl)C=C1)NC(=O)[C@@H](CC1=CC2=CC=CC=C2C=C1)NC(C)=O)C(=O)N[C@@H](CCCNC(N)=N)C(=O)N1CCC[C@H]1C(=O)N[C@H](C)C(N)=O

> <INCHI_IDENTIFIER>
InChI=1S/C70H92ClN17O14/c1-39(2)31-52(61(94)82-51(15-9-28-77-69(73)74)68(101)88-30-10-16-58(88)67(100)79-40(3)59(72)92)83-60(93)50(14-8-29-78-70(75)102)81-63(96)54(34-43-20-25-49(91)26-21-43)86-66(99)57(38-89)87-65(98)56(36-45-11-7-27-76-37-45)85-64(97)55(33-42-18-23-48(71)24-19-42)84-62(95)53(80-41(4)90)35-44-17-22-46-12-5-6-13-47(46)32-44/h5-7,11-13,17-27,32,37,39-40,50-58,89,91H,8-10,14-16,28-31,33-36,38H2,1-4H3,(H2,72,92)(H,79,100)(H,80,90)(H,81,96)(H,82,94)(H,83,93)(H,84,95)(H,85,97)(H,86,99)(H,87,98)(H4,73,74,77)(H3,75,78,102)/t40-,50-,51+,52+,53-,54+,55-,56-,57+,58+/m1/s1

> <INCHI_KEY>
SBNPWPIBESPSIF-MHWMIDJBSA-N

> <FORMULA>
C70H92ClN17O14

> <MOLECULAR_WEIGHT>
1431.038

> <EXACT_MASS>
1429.669818444

> <JCHEM_ACCEPTOR_COUNT>
18

> <JCHEM_AVERAGE_POLARIZABILITY>
148.0903995678307

> <JCHEM_BIOAVAILABILITY>
0

> <JCHEM_DONOR_COUNT>
17

> <JCHEM_FORMAL_CHARGE>
0

> <JCHEM_GHOSE_FILTER>
0

> <JCHEM_IUPAC>
(2S)-N-[(2S)-5-carbamimidamido-1-[(2S)-2-{[(1R)-1-carbamoylethyl]carbamoyl}pyrrolidin-1-yl]-1-oxopentan-2-yl]-2-[(2R)-5-(carbamoylamino)-2-[(2S)-2-[(2S)-2-[(2R)-2-[(2R)-3-(4-chlorophenyl)-2-[(2R)-2-acetamido-3-(naphthalen-2-yl)propanamido]propanamido]-3-(pyridin-3-yl)propanamido]-3-hydroxypropanamido]-3-(4-hydroxyphenyl)propanamido]pentanamido]-4-methylpentanamide

> <ALOGPS_LOGP>
1.33

> <JCHEM_LOGP>
-1.7055381771284417

> <ALOGPS_LOGS>
-5.31

> <JCHEM_MDDR_LIKE_RULE>
1

> <JCHEM_NUMBER_OF_RINGS>
6

> <JCHEM_PHYSIOLOGICAL_CHARGE>
1

> <JCHEM_PKA>
11.590298082972675

> <JCHEM_PKA_STRONGEST_ACIDIC>
9.49145482134492

> <JCHEM_PKA_STRONGEST_BASIC>
11.109391789497042

> <JCHEM_POLAR_SURFACE_AREA>
495.66999999999985

> <JCHEM_REFRACTIVITY>
384.1588000000001

> <JCHEM_ROTATABLE_BOND_COUNT>
38

> <JCHEM_RULE_OF_FIVE>
0

> <ALOGPS_SOLUBILITY>
6.94e-03 g/l

> <JCHEM_TRADITIONAL_IUPAC>
cetrorelix

> <JCHEM_VEBER_RULE>
0

> <DRUGBANK_ID>
DB00050

> <SECONDARY_ACCESSION_NUMBERS>
BTD00115; APRD00686; BIOD00115

> <DRUG_GROUPS>
approved; investigational

> <GENERIC_NAME>
Cetrorelix

> <SYNONYMS>
Cetrorelixum

> <PRODUCTS>
Cetrotide

> <SALTS>
Cetrorelix Acetate

$$$$

  Mrv1652309061622432D          

 85 85  0  0  0  0            999 V2000
    0.6944    1.3360    0.0000 C   0  0  2  0  0  0  0  0  0  0  0  0
   -0.0196    0.9229    0.0000 N   0  0  0  0  0  0  0  0  0  0  0  0
    1.4085    0.9229    0.0000 C   0  0  0  0  0  0  0  0  0  0  0  0
    0.6944    2.1583    0.0000 C   0  0  1  0  0  0  0  0  0  0  0  0
   -0.7337    1.3360    0.0000 C   0  0  0  0  0  0  0  0  0  0  0  0
   -0.0196    0.1005    0.0000 C   0  0  0  0  0  0  0  0  0  0  0  0
    2.1224    1.3360    0.0000 N   0  0  0  0  0  0  0  0  0  0  0  0
    1.4085    0.1005    0.0000 O   0  0  0  0  0  0  0  0  0  0  0  0
    1.4085    2.5716    0.0000 C   0  0  1  0  0  0  0  0  0  0  0  0
   -0.0196    2.5716    0.0000 O   0  0  0  0  0  0  0  0  0  0  0  0
   -1.4477    0.9229    0.0000 C   0  0  1  0  0  0  0  0  0  0  0  0
   -0.7337    2.1583    0.0000 O   0  0  0  0  0  0  0  0  0  0  0  0
    2.8365    0.9229    0.0000 C   0  0  2  0  0  0  0  0  0  0  0  0
    1.4085    3.3979    0.0000 C   0  0  0  0  0  0  0  0  0  0  0  0
    2.1224    2.1583    0.0000 C   0  0  0  0  0  0  0  0  0  0  0  0
   -2.1616    1.3360    0.0000 N   0  0  0  0  0  0  0  0  0  0  0  0
    3.5506    1.3360    0.0000 C   0  0  0  0  0  0  0  0  0  0  0  0
    2.8365    0.1005    0.0000 C   0  0  0  0  0  0  0  0  0  0  0  0
    0.6944    3.8111    0.0000 C   0  0  0  0  0  0  0  0  0  0  0  0
   -2.8757    0.9229    0.0000 C   0  0  0  0  0  0  0  0  0  0  0  0
   -2.1616    2.1583    0.0000 C   0  0  0  0  0  0  0  0  0  0  0  0
    4.2647    0.9229    0.0000 N   0  0  0  0  0  0  0  0  0  0  0  0
    3.5506    2.1583    0.0000 O   0  0  0  0  0  0  0  0  0  0  0  0
    2.1224   -0.3126    0.0000 C   0  0  0  0  0  0  0  0  0  0  0  0
    0.6944    4.6335    0.0000 C   0  0  0  0  0  0  0  0  0  0  0  0
   -3.5898    1.3360    0.0000 C   0  0  1  0  0  0  0  0  0  0  0  0
   -2.8757    0.1005    0.0000 O   0  0  0  0  0  0  0  0  0  0  0  0
    4.2647    0.1005    0.0000 C   0  0  0  0  0  0  0  0  0  0  0  0
    4.9787    1.3360    0.0000 C   0  0  0  0  0  0  0  0  0  0  0  0
   -0.0196    5.0467    0.0000 C   0  0  0  0  0  0  0  0  0  0  0  0
   -4.3039    0.9229    0.0000 N   0  0  0  0  0  0  0  0  0  0  0  0
   -3.5898    2.1583    0.0000 C   0  0  0  0  0  0  0  0  0  0  0  0
    4.9787   -0.3126    0.0000 C   0  0  0  0  0  0  0  0  0  0  0  0
   -4.2843   -1.6970    0.0000 C   0  0  0  0  0  0  0  0  0  0  0  0
   -5.1303    0.9229    0.0000 C   0  0  0  0  0  0  0  0  0  0  0  0
   -4.3039    2.5716    0.0000 C   0  0  0  0  0  0  0  0  0  0  0  0
    5.2692   -1.5421    0.0000 N   0  0  0  0  0  0  0  0  0  0  0  0
    5.6928    0.1005    0.0000 O   0  0  0  0  0  0  0  0  0  0  0  0
   -4.9983   -2.1102    0.0000 C   0  0  1  0  0  0  0  0  0  0  0  0
   -3.4939   -1.4764    0.0000 O   0  0  0  0  0  0  0  0  0  0  0  0
   -4.3039    3.3979    0.0000 C   0  0  0  0  0  0  0  0  0  0  0  0
   -5.0178    2.1583    0.0000 C   0  0  0  0  0  0  0  0  0  0  0  0
    4.9983   -2.9326    0.0000 C   0  0  2  0  0  0  0  0  0  0  0  0
    5.9854   -1.4956    0.0000 C   0  0  0  0  0  0  0  0  0  0  0  0
   -4.9983   -2.9326    0.0000 N   0  0  0  0  0  0  0  0  0  0  0  0
   -5.7123   -1.6970    0.0000 C   0  0  0  0  0  0  0  0  0  0  0  0
    4.2843   -3.3459    0.0000 C   0  0  0  0  0  0  0  0  0  0  0  0
    5.7124   -3.3459    0.0000 C   0  0  0  0  0  0  0  0  0  0  0  0
   -4.2843   -3.3459    0.0000 C   0  0  0  0  0  0  0  0  0  0  0  0
   -5.7123   -3.3459    0.0000 C   0  0  0  0  0  0  0  0  0  0  0  0
   -6.4264   -2.1102    0.0000 C   0  0  0  0  0  0  0  0  0  0  0  0
    3.5702   -2.9326    0.0000 N   0  0  0  0  0  0  0  0  0  0  0  0
    4.2843   -4.1682    0.0000 O   0  0  0  0  0  0  0  0  0  0  0  0
    6.4263   -2.9326    0.0000 C   0  0  0  0  0  0  0  0  0  0  0  0
   -3.5701   -2.9326    0.0000 C   0  0  2  0  0  0  0  0  0  0  0  0
   -4.2843   -4.1682    0.0000 O   0  0  0  0  0  0  0  0  0  0  0  0
   -7.1404   -1.6970    0.0000 C   0  0  0  0  0  0  0  0  0  0  0  0
   -6.8557   -2.8684    0.0000 C   0  0  0  0  0  0  0  0  0  0  0  0
    2.8561   -3.3459    0.0000 C   0  0  2  0  0  0  0  0  0  0  0  0
    7.1405   -3.3459    0.0000 C   0  0  0  0  0  0  0  0  0  0  0  0
    6.4263   -2.1102    0.0000 C   0  0  0  0  0  0  0  0  0  0  0  0
   -2.8561   -3.3459    0.0000 N   0  0  0  0  0  0  0  0  0  0  0  0
   -3.5701   -2.1102    0.0000 C   0  0  0  0  0  0  0  0  0  0  0  0
    2.1421   -2.9326    0.0000 C   0  0  0  0  0  0  0  0  0  0  0  0
    2.8722   -4.4169    0.0000 C   0  0  0  0  0  0  0  0  0  0  0  0
   -2.1420   -2.9326    0.0000 C   0  0  0  0  0  0  0  0  0  0  0  0
    1.4281   -3.3459    0.0000 N   0  0  0  0  0  0  0  0  0  0  0  0
    2.1421   -2.1102    0.0000 O   0  0  0  0  0  0  0  0  0  0  0  0
    2.1100   -5.0466    0.0000 C   0  0  0  0  0  0  0  0  0  0  0  0
    3.5982   -4.9825    0.0000 C   0  0  0  0  0  0  0  0  0  0  0  0
   -1.4282   -3.3459    0.0000 C   0  0  1  0  0  0  0  0  0  0  0  0
   -2.1420   -2.1102    0.0000 O   0  0  0  0  0  0  0  0  0  0  0  0
    0.7140   -2.9326    0.0000 C   0  0  2  0  0  0  0  0  0  0  0  0
    1.4281   -4.1682    0.0000 C   0  0  0  0  0  0  0  0  0  0  0  0
   -0.7141   -2.9326    0.0000 N   0  0  0  0  0  0  0  0  0  0  0  0
   -1.4282   -4.1682    0.0000 C   0  0  0  0  0  0  0  0  0  0  0  0
    0.0000   -3.3459    0.0000 C   0  0  0  0  0  0  0  0  0  0  0  0
    0.0000   -4.1682    0.0000 O   0  0  0  0  0  0  0  0  0  0  0  0
   -1.4479    0.0979    0.0000 C   0  0  0  0  0  0  0  0  0  0  0  0
   -2.1622   -0.3145    0.0000 C   0  0  0  0  0  0  0  0  0  0  0  0
   -0.7334   -0.3145    0.0000 C   0  0  0  0  0  0  0  0  0  0  0  0
    0.7140   -2.1076    0.0000 C   0  0  0  0  0  0  0  0  0  0  0  0
   -0.0004   -1.6951    0.0000 C   0  0  0  0  0  0  0  0  0  0  0  0
   -0.0004   -0.8701    0.0000 C   0  0  0  0  0  0  0  0  0  0  0  0
   -0.7148   -2.1076    0.0000 C   0  0  0  0  0  0  0  0  0  0  0  0
  1  2  1  1  0  0  0
  1  3  1  0  0  0  0
  1  4  1  0  0  0  0
  2  5  1  0  0  0  0
  2  6  1  0  0  0  0
  3  7  1  0  0  0  0
  3  8  2  0  0  0  0
  4  9  1  0  0  0  0
  4 10  1  6  0  0  0
  5 11  1  0  0  0  0
  5 12  2  0  0  0  0
  7 13  1  0  0  0  0
  9 14  1  0  0  0  0
  9 15  1  1  0  0  0
 11 16  1  0  0  0  0
 13 17  1  0  0  0  0
 13 18  1  6  0  0  0
 14 19  1  0  0  0  0
 16 20  1  0  0  0  0
 16 21  1  0  0  0  0
 17 22  1  0  0  0  0
 17 23  2  0  0  0  0
 18 24  1  0  0  0  0
 19 25  2  0  0  0  0
 20 26  1  0  0  0  0
 20 27  2  0  0  0  0
 22 28  1  0  0  0  0
 22 29  1  0  0  0  0
 25 30  1  0  0  0  0
 26 31  1  0  0  0  0
 26 32  1  1  0  0  0
 28 33  1  0  0  0  0
 31 35  1  0  0  0  0
 32 36  1  0  0  0  0
 33 38  2  0  0  0  0
 34 39  1  0  0  0  0
 34 40  2  0  0  0  0
 36 41  1  0  0  0  0
 36 42  1  0  0  0  0
 37 43  1  0  0  0  0
 37 44  1  0  0  0  0
 39 45  1  0  0  0  0
 39 46  1  1  0  0  0
 43 47  1  0  0  0  0
 43 48  1  1  0  0  0
 45 49  1  0  0  0  0
 45 50  1  0  0  0  0
 46 51  1  0  0  0  0
 47 52  1  0  0  0  0
 47 53  2  0  0  0  0
 48 54  1  0  0  0  0
 49 55  1  0  0  0  0
 49 56  2  0  0  0  0
 51 57  1  0  0  0  0
 51 58  1  0  0  0  0
 52 59  1  0  0  0  0
 54 60  1  0  0  0  0
 54 61  1  0  0  0  0
 55 62  1  0  0  0  0
 55 63  1  1  0  0  0
 59 64  1  0  0  0  0
 59 65  1  1  0  0  0
 62 66  1  0  0  0  0
 64 67  1  0  0  0  0
 64 68  2  0  0  0  0
 65 69  1  0  0  0  0
 65 70  1  0  0  0  0
 66 71  1  0  0  0  0
 66 72  2  0  0  0  0
 67 73  1  0  0  0  0
 67 74  1  0  0  0  0
 71 75  1  0  0  0  0
 71 76  1  1  0  0  0
 73 77  1  0  0  0  0
 77 78  2  0  0  0  0
 75 77  1  0  0  0  0
 11 79  1  6  0  0  0
 79 80  1  0  0  0  0
 79 81  1  0  0  0  0
 73 82  1  6  0  0  0
 82 83  1  0  0  0  0
 83 84  1  0  0  0  0
 83 85  1  0  0  0  0
 34 31  1  0  0  0  0
 33 37  1  0  0  0  0
M  END
> <DATABASE_ID>
DB00091

> <DATABASE_NAME>
drugbank

> <SMILES>
CC[C@@H]1NC(=O)[C@H]([C@H](O)[C@H](C)C\C=C\C)N(C)C(=O)[C@H](C(C)C)N(C)C(=O)[C@H](CC(C)C)N(C)C(=O)[C@H](CC(C)C)N(C)C(=O)[C@@H](C)NC(=O)[C@H](C)NC(=O)[C@H](CC(C)C)N(C)C(=O)[C@@H](NC(=O)[C@H](CC(C)C)N(C)C(=O)CN(C)C1=O)C(C)C

> <INCHI_IDENTIFIER>
InChI=1S/C62H111N11O12/c1-25-27-28-40(15)52(75)51-56(79)65-43(26-2)58(81)67(18)33-48(74)68(19)44(29-34(3)4)55(78)66-49(38(11)12)61(84)69(20)45(30-35(5)6)54(77)63-41(16)53(76)64-42(17)57(80)70(21)46(31-36(7)8)59(82)71(22)47(32-37(9)10)60(83)72(23)50(39(13)14)62(85)73(51)24/h25,27,34-47,49-52,75H,26,28-33H2,1-24H3,(H,63,77)(H,64,76)(H,65,79)(H,66,78)/b27-25+/t40-,41+,42-,43+,44+,45+,46+,47+,49+,50+,51+,52-/m1/s1

> <INCHI_KEY>
PMATZTZNYRCHOR-CGLBZJNRSA-N

> <FORMULA>
C62H111N11O12

> <MOLECULAR_WEIGHT>
1202.635

> <EXACT_MASS>
1201.841368058

> <JCHEM_ACCEPTOR_COUNT>
12

> <JCHEM_ATOM_COUNT>
196

> <JCHEM_AVERAGE_POLARIZABILITY>
133.60132638203973

> <JCHEM_BIOAVAILABILITY>
0

> <JCHEM_DONOR_COUNT>
5

> <JCHEM_FORMAL_CHARGE>
0

> <JCHEM_GHOSE_FILTER>
0

> <JCHEM_IUPAC>
(3S,6S,9S,12R,15S,18S,21S,24S,30S,33S)-30-ethyl-33-[(1R,2R,4E)-1-hydroxy-2-methylhex-4-en-1-yl]-1,4,7,10,12,15,19,25,28-nonamethyl-6,9,18,24-tetrakis(2-methylpropyl)-3,21-bis(propan-2-yl)-1,4,7,10,13,16,19,22,25,28,31-undecaazacyclotritriacontan-2,5,8,11,14,17,20,23,26,29,32-undecone

> <JCHEM_LOGP>
3.638157327333332

> <JCHEM_MDDR_LIKE_RULE>
0

> <JCHEM_NUMBER_OF_RINGS>
1

> <JCHEM_PHYSIOLOGICAL_CHARGE>
0

> <JCHEM_PKA>
12.234112317341314

> <JCHEM_PKA_STRONGEST_ACIDIC>
11.825701333808036

> <JCHEM_PKA_STRONGEST_BASIC>
-2.3937129676327564

> <JCHEM_POLAR_SURFACE_AREA>
278.79999999999995

> <JCHEM_REFRACTIVITY>
327.1417

> <JCHEM_ROTATABLE_BOND_COUNT>
15

> <JCHEM_RULE_OF_FIVE>
0

> <JCHEM_TRADITIONAL_IUPAC>
(3S,6S,9S,12R,15S,18S,21S,24S,30S,33S)-30-ethyl-33-[(1R,2R,4E)-1-hydroxy-2-methylhex-4-en-1-yl]-3,21-diisopropyl-1,4,7,10,12,15,19,25,28-nonamethyl-6,9,18,24-tetrakis(2-methylpropyl)-1,4,7,10,13,16,19,22,25,28,31-undecaazacyclotritriacontan-2,5,8,11,14,17,20,23,26,29,32-undecone

> <JCHEM_VEBER_RULE>
0

> <DRUGBANK_ID>
DB00091

> <SECONDARY_ACCESSION_NUMBERS>
BTD00003; BIOD00003

> <DRUG_GROUPS>
approved; investigational; vet_approved

> <GENERIC_NAME>
Cyclosporine

> <SYNONYMS>
Ciclosporin; Ciclosporina; Ciclosporine; Ciclosporinum; CsA; CyA; Cyclosporin; Cyclosporin A

> <PRODUCTS>
Apo-cyclosporine Oral Solution; Cyclosporine; Cyclosporine Modified; Gengraf; Neoral; Neoral 100mg; Neoral 10mg; Neoral 25mg; Neoral 50mg; Neoral Oral Solution 100mg/ml; Restasis; Restasis Multidose; Sandimmune; Sandimmune Cap 50mg; Sandimmune IV 50mg/ml; Sandimmune Oral Sol 100mg/ml; Sandimmune Soft Gelatin Cap 100mg; Sandimmune Soft Gelatine Cap 25mg; Sandoz Cyclosporine

> <INTERNATIONAL_BRANDS>
Sangcya

$$$$

  Mrv0541 10031320352D          

 72 75  0  0  0  0            999 V2000
   13.8283   -8.2269    0.0000 N   0  0  0  0  0  0  0  0  0  0  0  0
   13.1542   -7.8673    0.0000 C   0  0  0  0  0  0  0  0  0  0  0  0
   12.4352   -8.2269    0.0000 C   0  0  0  0  0  0  0  0  0  0  0  0
   11.7161   -7.8673    0.0000 N   0  0  0  0  0  0  0  0  0  0  0  0
   10.9970   -8.2269    0.0000 C   0  0  0  0  0  0  0  0  0  0  0  0
   10.2780   -7.8673    0.0000 C   0  0  1  0  0  0  0  0  0  0  0  0
    9.5589   -8.2269    0.0000 N   0  0  0  0  0  0  0  0  0  0  0  0
    8.8848   -7.8673    0.0000 C   0  0  0  0  0  0  0  0  0  0  0  0
    8.1658   -8.2269    0.0000 O   0  0  0  0  0  0  0  0  0  0  0  0
   13.1542   -7.0135    0.0000 O   0  0  0  0  0  0  0  0  0  0  0  0
   10.9970   -9.0807    0.0000 O   0  0  0  0  0  0  0  0  0  0  0  0
   10.2780   -7.0135    0.0000 C   0  0  0  0  0  0  0  0  0  0  0  0
   10.9970   -6.6089    0.0000 C   0  0  0  0  0  0  0  0  0  0  0  0
   10.9970   -5.7550    0.0000 C   0  0  0  0  0  0  0  0  0  0  0  0
   11.6712   -5.3506    0.0000 C   0  0  0  0  0  0  0  0  0  0  0  0
    8.8848   -7.0135    0.0000 C   0  0  2  0  0  0  0  0  0  0  0  0
    9.5140   -6.5191    0.0000 C   0  0  0  0  0  0  0  0  0  0  0  0
    8.2107   -6.5191    0.0000 N   0  0  0  0  0  0  0  0  0  0  0  0
    9.2893   -5.7550    0.0000 C   0  0  0  0  0  0  0  0  0  0  0  0
    8.4354   -5.7550    0.0000 C   0  0  0  0  0  0  0  0  0  0  0  0
    7.4916   -6.9236    0.0000 C   0  0  0  0  0  0  0  0  0  0  0  0
    6.7725   -6.5191    0.0000 C   0  0  1  0  0  0  0  0  0  0  0  0
    6.0535   -6.9236    0.0000 N   0  0  0  0  0  0  0  0  0  0  0  0
    5.3344   -6.5191    0.0000 C   0  0  0  0  0  0  0  0  0  0  0  0
    4.6603   -6.9236    0.0000 C   0  0  1  0  0  0  0  0  0  0  0  0
    3.9413   -6.5191    0.0000 N   0  0  0  0  0  0  0  0  0  0  0  0
    7.4916   -7.7774    0.0000 O   0  0  0  0  0  0  0  0  0  0  0  0
    6.7725   -5.7101    0.0000 C   0  0  0  0  0  0  0  0  0  0  0  0
    7.4916   -5.3057    0.0000 S   0  0  0  0  0  0  0  0  0  0  0  0
    7.4916   -4.4967    0.0000 S   0  0  0  0  0  0  0  0  0  0  0  0
    5.3344   -5.7101    0.0000 O   0  0  0  0  0  0  0  0  0  0  0  0
    4.6603   -7.7774    0.0000 C   0  0  0  0  0  0  0  0  0  0  0  0
    3.9413   -8.1819    0.0000 C   0  0  0  0  0  0  0  0  0  0  0  0
    3.9413   -8.9909    0.0000 O   0  0  0  0  0  0  0  0  0  0  0  0
    3.2222   -7.7774    0.0000 N   0  0  0  0  0  0  0  0  0  0  0  0
    3.9413   -5.7101    0.0000 C   0  0  0  0  0  0  0  0  0  0  0  0
    3.2222   -5.3057    0.0000 C   0  0  2  0  0  0  0  0  0  0  0  0
    4.6603   -5.3057    0.0000 O   0  0  0  0  0  0  0  0  0  0  0  0
    2.5031   -5.7101    0.0000 C   0  0  0  0  0  0  0  0  0  0  0  0
    2.4754   -6.5347    0.0000 C   0  0  0  0  0  0  0  0  0  0  0  0
    1.7563   -6.9392    0.0000 C   0  0  0  0  0  0  0  0  0  0  0  0
    1.0373   -6.5347    0.0000 N   0  0  0  0  0  0  0  0  0  0  0  0
    1.7563   -7.7931    0.0000 O   0  0  0  0  0  0  0  0  0  0  0  0
    3.2222   -4.4967    0.0000 N   0  0  0  0  0  0  0  0  0  0  0  0
    2.5031   -3.2384    0.0000 C   0  0  0  0  0  0  0  0  0  0  0  0
    2.5031   -4.0922    0.0000 C   0  0  0  0  0  0  0  0  0  0  0  0
    3.2222   -2.8339    0.0000 C   0  0  0  0  0  0  0  0  0  0  0  0
    3.9413   -3.2384    0.0000 C   0  0  1  0  0  0  0  0  0  0  0  0
    3.9413   -4.0922    0.0000 C   0  0  0  0  0  0  0  0  0  0  0  0
    1.0650   -3.2384    0.0000 C   0  0  0  0  0  0  0  0  0  0  0  0
    1.0650   -4.0922    0.0000 C   0  0  0  0  0  0  0  0  0  0  0  0
    1.7841   -2.8339    0.0000 C   0  0  0  0  0  0  0  0  0  0  0  0
    1.7841   -4.4967    0.0000 C   0  0  0  0  0  0  0  0  0  0  0  0
    6.7725   -3.2384    0.0000 N   0  0  0  0  0  0  0  0  0  0  0  0
    7.4916   -2.8339    0.0000 C   0  0  0  0  0  0  0  0  0  0  0  0
    8.2107   -3.2384    0.0000 C   0  0  2  0  0  0  0  0  0  0  0  0
    8.2107   -4.0473    0.0000 C   0  0  0  0  0  0  0  0  0  0  0  0
    5.3794   -3.2384    0.0000 C   0  0  0  0  0  0  0  0  0  0  0  0
    5.3794   -4.0473    0.0000 O   0  0  0  0  0  0  0  0  0  0  0  0
    6.0535   -2.8339    0.0000 C   0  0  2  0  0  0  0  0  0  0  0  0
    4.6603   -2.8339    0.0000 N   0  0  0  0  0  0  0  0  0  0  0  0
    4.6603   -4.4967    0.0000 O   0  0  0  0  0  0  0  0  0  0  0  0
    6.0535   -1.9800    0.0000 C   0  0  0  0  0  0  0  0  0  0  0  0
    4.6603   -1.9800    0.0000 C   0  0  0  0  0  0  0  0  0  0  0  0
    5.3794   -1.5756    0.0000 C   0  0  0  0  0  0  0  0  0  0  0  0
    3.9413   -1.5756    0.0000 C   0  0  0  0  0  0  0  0  0  0  0  0
    3.9413   -0.7666    0.0000 C   0  0  0  0  0  0  0  0  0  0  0  0
    5.3794   -0.7666    0.0000 C   0  0  0  0  0  0  0  0  0  0  0  0
    4.6603   -0.3621    0.0000 C   0  0  0  0  0  0  0  0  0  0  0  0
    8.8848   -2.8339    0.0000 N   0  0  0  0  0  0  0  0  0  0  0  0
    7.4916   -1.9800    0.0000 O   0  0  0  0  0  0  0  0  0  0  0  0
   11.6712   -4.5417    0.0000 N   0  0  0  0  0  0  0  0  0  0  0  0
  2  1  1  0  0  0  0
  3  2  1  0  0  0  0
 10  2  2  0  0  0  0
  4  3  1  0  0  0  0
  5  4  1  0  0  0  0
  6  5  1  0  0  0  0
 11  5  2  0  0  0  0
  7  6  1  0  0  0  0
  6 12  1  1  0  0  0
  8  7  1  0  0  0  0
  9  8  2  0  0  0  0
 16  8  1  1  0  0  0
 13 12  1  0  0  0  0
 14 13  1  0  0  0  0
 15 14  1  0  0  0  0
 72 15  1  0  0  0  0
 17 16  1  0  0  0  0
 18 16  1  0  0  0  0
 19 17  1  0  0  0  0
 20 18  1  0  0  0  0
 21 18  1  0  0  0  0
 20 19  1  0  0  0  0
 22 21  1  1  0  0  0
 27 21  2  0  0  0  0
 23 22  1  0  0  0  0
 28 22  1  0  0  0  0
 24 23  1  0  0  0  0
 25 24  1  0  0  0  0
 31 24  2  0  0  0  0
 26 25  1  0  0  0  0
 25 32  1  6  0  0  0
 36 26  1  0  0  0  0
 29 28  1  0  0  0  0
 30 29  1  0  0  0  0
 57 30  1  0  0  0  0
 33 32  1  0  0  0  0
 34 33  2  0  0  0  0
 35 33  1  0  0  0  0
 37 36  1  0  0  0  0
 38 36  2  0  0  0  0
 37 39  1  6  0  0  0
 44 37  1  0  0  0  0
 40 39  1  0  0  0  0
 41 40  1  0  0  0  0
 42 41  1  0  0  0  0
 43 41  2  0  0  0  0
 49 44  1  0  0  0  0
 47 45  1  0  0  0  0
 52 45  1  0  0  0  0
 46 45  2  0  0  0  0
 53 46  1  0  0  0  0
 48 47  1  6  0  0  0
 61 48  1  0  0  0  0
 49 48  1  0  0  0  0
 62 49  2  0  0  0  0
 51 50  1  0  0  0  0
 52 50  2  0  0  0  0
 53 51  2  0  0  0  0
 55 54  1  0  0  0  0
 60 54  1  0  0  0  0
 56 55  1  0  0  0  0
 71 55  2  0  0  0  0
 57 56  1  0  0  0  0
 56 70  1  1  0  0  0
 59 58  2  0  0  0  0
 60 58  1  0  0  0  0
 61 58  1  0  0  0  0
 60 63  1  6  0  0  0
 65 63  1  0  0  0  0
 66 64  2  0  0  0  0
 65 64  1  0  0  0  0
 68 65  2  0  0  0  0
 67 66  1  0  0  0  0
 69 67  2  0  0  0  0
 69 68  1  0  0  0  0
M  END
> <DATABASE_ID>
DB00093

> <DATABASE_NAME>
drugbank

> <SMILES>
NCCCC[C@H](NC(=O)[C@@H]1CCCN1C(=O)[C@@H]1CSSC[C@H](N)C(=O)N[C@@H](CC2=CC=CC=C2)C(=O)N[C@@H](CC2=CC=CC=C2)C(=O)N[C@@H](CCC(N)=O)C(=O)N[C@@H](CC(N)=O)C(=O)N1)C(=O)NCC(N)=O

> <INCHI_IDENTIFIER>
InChI=1S/C46H65N13O11S2/c47-18-8-7-14-29(40(64)52-23-38(51)62)54-45(69)35-15-9-19-59(35)46(70)34-25-72-71-24-28(48)39(63)55-31(20-26-10-3-1-4-11-26)43(67)56-32(21-27-12-5-2-6-13-27)42(66)53-30(16-17-36(49)60)41(65)57-33(22-37(50)61)44(68)58-34/h1-6,10-13,28-35H,7-9,14-25,47-48H2,(H2,49,60)(H2,50,61)(H2,51,62)(H,52,64)(H,53,66)(H,54,69)(H,55,63)(H,56,67)(H,57,65)(H,58,68)/t28-,29-,30-,31-,32-,33-,34-,35-/m0/s1

> <INCHI_KEY>
SFKQVVDKFKYTNA-DZCXQCEKSA-N

> <FORMULA>
C46H65N13O11S2

> <MOLECULAR_WEIGHT>
1040.219

> <EXACT_MASS>
1039.436791367

> <JCHEM_ACCEPTOR_COUNT>
13

> <JCHEM_AVERAGE_POLARIZABILITY>
103.93121703841666

> <JCHEM_BIOAVAILABILITY>
0

> <JCHEM_DONOR_COUNT>
12

> <JCHEM_FORMAL_CHARGE>
0

> <JCHEM_GHOSE_FILTER>
0

> <JCHEM_IUPAC>
(2S)-6-amino-2-{[(2S)-1-[(4R,7S,10S,13S,16S,19R)-19-amino-13,16-dibenzyl-10-(2-carbamoylethyl)-7-(carbamoylmethyl)-6,9,12,15,18-pentaoxo-1,2-dithia-5,8,11,14,17-pentaazacycloicosane-4-carbonyl]pyrrolidin-2-yl]formamido}-N-(carbamoylmethyl)hexanamide

> <ALOGPS_LOGP>
-1.11

> <JCHEM_LOGP>
-5.835369634601158

> <ALOGPS_LOGS>
-4.36

> <JCHEM_MDDR_LIKE_RULE>
1

> <JCHEM_NUMBER_OF_RINGS>
4

> <JCHEM_PHYSIOLOGICAL_CHARGE>
2

> <JCHEM_PKA>
11.7997867962954

> <JCHEM_PKA_STRONGEST_ACIDIC>
11.385350067635363

> <JCHEM_PKA_STRONGEST_BASIC>
10.176531109821177

> <JCHEM_POLAR_SURFACE_AREA>
405.3199999999998

> <JCHEM_REFRACTIVITY>
264.7915

> <JCHEM_ROTATABLE_BOND_COUNT>
19

> <JCHEM_RULE_OF_FIVE>
0

> <ALOGPS_SOLUBILITY>
4.53e-02 g/l

> <JCHEM_TRADITIONAL_IUPAC>
felypressin

> <JCHEM_VEBER_RULE>
0

> <DRUGBANK_ID>
DB00093

> <SECONDARY_ACCESSION_NUMBERS>
BTD00114; BIOD00114

> <DRUG_GROUPS>
approved

> <GENERIC_NAME>
Felypressin

> <SYNONYMS>
2-(L-phenylalanine)-8-L-lysinevasopressin; Felipresina; Felypressin; Felypressine; Felypressinum; PLV-2

> <INTERNATIONAL_BRANDS>
Colupressine; Octapressin

$$$$

  Mrv1572004121619222D          

 72 76  0  0  0  0            999 V2000
    2.4822    0.3642    0.0000 N   0  0  0  0  0  0  0  0  0  0  0  0
    2.4822   -0.4607    0.0000 C   0  0  2  0  0  0  0  0  0  0  0  0
    1.7730   -0.8805    0.0000 C   0  0  0  0  0  0  0  0  0  0  0  0
    1.7778   -1.7055    0.0000 N   0  0  0  0  0  0  0  0  0  0  0  0
   -1.7971   -0.4703    0.0000 N   0  0  0  0  0  0  0  0  0  0  0  0
   -1.1361    1.5944    0.0000 N   0  0  0  0  0  0  0  0  0  0  0  0
   -2.5111   -0.8901    0.0000 C   0  0  0  0  0  0  0  0  0  0  0  0
    1.0542    1.9997    0.0000 N   0  0  0  0  0  0  0  0  0  0  0  0
    1.7634    0.7694    0.0000 C   0  0  0  0  0  0  0  0  0  0  0  0
    0.3305    1.5848    0.0000 C   0  0  0  0  0  0  0  0  0  0  0  0
   -1.1313    0.7694    0.0000 C   0  0  0  0  0  0  0  0  0  0  0  0
    0.3884    3.2010    0.0000 C   0  0  0  0  0  0  0  0  0  0  0  0
    1.0686   -2.1348    0.0000 C   0  0  2  0  0  0  0  0  0  0  0  0
   -2.5207   -1.7344    0.0000 C   0  0  1  0  0  0  0  0  0  0  0  0
    1.0831   -2.9502    0.0000 C   0  0  0  0  0  0  0  0  0  0  0  0
   -0.3835    1.9997    0.0000 C   0  0  1  0  0  0  0  0  0  0  0  0
   -3.1576   -2.1397    0.0000 N   0  0  0  0  0  0  0  0  0  0  0  0
   -1.7971    0.3642    0.0000 C   0  0  2  0  0  0  0  0  0  0  0  0
   -3.9151   -1.7923    0.0000 C   0  0  0  0  0  0  0  0  0  0  0  0
    1.7199    3.2300    0.0000 N   0  0  0  0  0  0  0  0  0  0  0  0
    0.3690   -3.3699    0.0000 N   0  0  0  0  0  0  0  0  0  0  0  0
    1.0638    2.7379    0.0000 C   0  0  0  0  0  0  0  0  0  0  0  0
    1.7634    1.5944    0.0000 C   0  0  2  0  0  0  0  0  0  0  0  0
   -0.3835    2.8247    0.0000 C   0  0  0  0  0  0  0  0  0  0  0  0
    0.6344    3.9875    0.0000 C   0  0  0  0  0  0  0  0  0  0  0  0
    0.3594   -4.1949    0.0000 C   0  0  1  0  0  0  0  0  0  0  0  0
   -0.2918   -2.1348    0.0000 S   0  0  0  0  0  0  0  0  0  0  0  0
   -1.1796   -1.7199    0.0000 S   0  0  0  0  0  0  0  0  0  0  0  0
    1.4594    3.9875    0.0000 C   0  0  0  0  0  0  0  0  0  0  0  0
   -4.6243   -2.2265    0.0000 C   0  0  1  0  0  0  0  0  0  0  0  0
    1.0493   -0.4752    0.0000 O   0  0  0  0  0  0  0  0  0  0  0  0
   -3.2348   -0.4897    0.0000 O   0  0  0  0  0  0  0  0  0  0  0  0
    1.0493    0.3642    0.0000 O   0  0  0  0  0  0  0  0  0  0  0  0
    0.3305    0.7694    0.0000 O   0  0  0  0  0  0  0  0  0  0  0  0
   -0.3835    0.3642    0.0000 O   0  0  0  0  0  0  0  0  0  0  0  0
    1.7634   -3.3410    0.0000 O   0  0  0  0  0  0  0  0  0  0  0  0
   -2.5111    0.7694    0.0000 C   0  0  0  0  0  0  0  0  0  0  0  0
   -3.9151   -0.9673    0.0000 O   0  0  0  0  0  0  0  0  0  0  0  0
    0.3835   -1.7344    0.0000 C   0  0  0  0  0  0  0  0  0  0  0  0
   -1.8453   -2.0963    0.0000 C   0  0  0  0  0  0  0  0  0  0  0  0
    3.2059   -0.8660    0.0000 C   0  0  2  0  0  0  0  0  0  0  0  0
   -4.6194   -3.0515    0.0000 C   0  0  0  0  0  0  0  0  0  0  0  0
    1.0976   -4.6002    0.0000 C   0  0  2  0  0  0  0  0  0  0  0  0
   -5.3480   -1.8357    0.0000 N   0  0  0  0  0  0  0  0  0  0  0  0
   -2.5063    1.5848    0.0000 C   0  0  0  0  0  0  0  0  0  0  0  0
   -3.9102   -3.4568    0.0000 C   0  0  0  0  0  0  0  0  0  0  0  0
    5.3480    2.0142    0.0000 N   0  0  0  0  0  0  0  0  0  0  0  0
    3.2107   -1.6910    0.0000 O   0  0  0  0  0  0  0  0  0  0  0  0
    1.1072   -5.4348    0.0000 O   0  0  0  0  0  0  0  0  0  0  0  0
   -0.3352   -4.6292    0.0000 C   0  0  0  0  0  0  0  0  0  0  0  0
   -1.0589   -4.2190    0.0000 O   0  0  0  0  0  0  0  0  0  0  0  0
    0.2147    4.7111    0.0000 C   0  0  0  0  0  0  0  0  0  0  0  0
    2.4822    2.0142    0.0000 C   0  0  0  0  0  0  0  0  0  0  0  0
    1.8888    4.7111    0.0000 C   0  0  0  0  0  0  0  0  0  0  0  0
    4.6292    1.5993    0.0000 C   0  0  0  0  0  0  0  0  0  0  0  0
    3.9151   -0.4414    0.0000 C   0  0  0  0  0  0  0  0  0  0  0  0
    1.8068   -4.1805    0.0000 C   0  0  0  0  0  0  0  0  0  0  0  0
   -3.9006   -4.2818    0.0000 C   0  0  0  0  0  0  0  0  0  0  0  0
   -3.2300    2.0142    0.0000 C   0  0  0  0  0  0  0  0  0  0  0  0
   -1.7730    1.9756    0.0000 C   0  0  0  0  0  0  0  0  0  0  0  0
   -3.1865   -3.0467    0.0000 C   0  0  0  0  0  0  0  0  0  0  0  0
    3.1963    1.5993    0.0000 C   0  0  0  0  0  0  0  0  0  0  0  0
    3.9151    2.0142    0.0000 C   0  0  0  0  0  0  0  0  0  0  0  0
    0.6296    5.4300    0.0000 C   0  0  0  0  0  0  0  0  0  0  0  0
    1.4594    5.4348    0.0000 C   0  0  0  0  0  0  0  0  0  0  0  0
   -2.5063   -3.4568    0.0000 C   0  0  0  0  0  0  0  0  0  0  0  0
   -3.2155   -4.6677    0.0000 C   0  0  0  0  0  0  0  0  0  0  0  0
   -3.2300    2.8392    0.0000 C   0  0  0  0  0  0  0  0  0  0  0  0
   -1.7681    2.8102    0.0000 C   0  0  0  0  0  0  0  0  0  0  0  0
   -2.4677    3.2348    0.0000 C   0  0  0  0  0  0  0  0  0  0  0  0
   -2.5063   -4.2818    0.0000 C   0  0  0  0  0  0  0  0  0  0  0  0
    3.1528   -0.0651    0.0000 H   0  0  0  0  0  0  0  0  0  0  0  0
  2  1  1  0  0  0  0
  3  2  1  0  0  0  0
  4  3  1  0  0  0  0
  5 18  1  0  0  0  0
  6 16  1  0  0  0  0
  7  5  1  0  0  0  0
  8 23  1  0  0  0  0
  9  1  1  0  0  0  0
 10  8  1  0  0  0  0
 11  6  1  0  0  0  0
 12 24  1  0  0  0  0
 13  4  1  0  0  0  0
 14 40  1  0  0  0  0
 13 15  1  6  0  0  0
 16 10  1  0  0  0  0
 14 17  1  6  0  0  0
 18 11  1  0  0  0  0
 19 17  1  0  0  0  0
 20 22  1  0  0  0  0
 21 15  1  0  0  0  0
 22 12  2  0  0  0  0
 23  9  1  0  0  0  0
 16 24  1  6  0  0  0
 25 12  1  0  0  0  0
 26 21  1  0  0  0  0
 27 39  1  0  0  0  0
 28 27  1  0  0  0  0
 29 25  2  0  0  0  0
 30 19  1  0  0  0  0
 31  3  2  0  0  0  0
 32  7  2  0  0  0  0
 33  9  2  0  0  0  0
 34 10  2  0  0  0  0
 35 11  2  0  0  0  0
 36 15  2  0  0  0  0
 18 37  1  1  0  0  0
 38 19  2  0  0  0  0
 39 13  1  0  0  0  0
 40 28  1  0  0  0  0
 41  2  1  0  0  0  0
 30 42  1  1  0  0  0
 43 26  1  0  0  0  0
 44 30  1  0  0  0  0
 45 37  1  0  0  0  0
 46 42  1  0  0  0  0
 47 55  1  0  0  0  0
 41 48  1  1  0  0  0
 43 49  1  1  0  0  0
 26 50  1  1  0  0  0
 51 50  1  0  0  0  0
 52 25  1  0  0  0  0
 23 53  1  1  0  0  0
 54 29  1  0  0  0  0
 55 63  1  0  0  0  0
 56 41  1  0  0  0  0
 57 43  1  0  0  0  0
 58 46  1  0  0  0  0
 59 45  2  0  0  0  0
 60 45  1  0  0  0  0
 61 46  2  0  0  0  0
 62 53  1  0  0  0  0
 63 62  1  0  0  0  0
 64 52  2  0  0  0  0
 65 64  1  0  0  0  0
 66 61  1  0  0  0  0
 67 58  2  0  0  0  0
 68 59  1  0  0  0  0
 69 60  2  0  0  0  0
 70 69  1  0  0  0  0
 71 66  2  0  0  0  0
  2 72  1  6  0  0  0
 29 20  1  0  0  0  0
 14  7  1  0  0  0  0
 54 65  2  0  0  0  0
 68 70  2  0  0  0  0
 71 67  1  0  0  0  0
M  END
> <DATABASE_ID>
DB00104

> <DATABASE_NAME>
drugbank

> <SMILES>
[H][C@]1(NC(=O)[C@H](CCCCN)NC(=O)[C@@H](CC2=CNC3=C2C=CC=C3)NC(=O)[C@H](CC2=CC=CC=C2)NC(=O)[C@H](CSSC[C@H](NC1=O)C(=O)N[C@H](CO)[C@@H](C)O)NC(=O)[C@H](N)CC1=CC=CC=C1)[C@@H](C)O

> <INCHI_IDENTIFIER>
InChI=1S/C49H66N10O10S2/c1-28(61)39(25-60)56-48(68)41-27-71-70-26-40(57-43(63)34(51)21-30-13-5-3-6-14-30)47(67)54-37(22-31-15-7-4-8-16-31)45(65)55-38(23-32-24-52-35-18-10-9-17-33(32)35)46(66)53-36(19-11-12-20-50)44(64)59-42(29(2)62)49(69)58-41/h3-10,13-18,24,28-29,34,36-42,52,60-62H,11-12,19-23,25-27,50-51H2,1-2H3,(H,53,66)(H,54,67)(H,55,65)(H,56,68)(H,57,63)(H,58,69)(H,59,64)/t28-,29-,34-,36+,37+,38-,39-,40+,41+,42+/m1/s1

> <INCHI_KEY>
DEQANNDTNATYII-OULOTJBUSA-N

> <FORMULA>
C49H66N10O10S2

> <MOLECULAR_WEIGHT>
1019.25

> <EXACT_MASS>
1018.440480713

> <JCHEM_ACCEPTOR_COUNT>
12

> <JCHEM_ATOM_COUNT>
137

> <JCHEM_AVERAGE_POLARIZABILITY>
107.65312334480934

> <JCHEM_BIOAVAILABILITY>
0

> <JCHEM_DONOR_COUNT>
13

> <JCHEM_FORMAL_CHARGE>
0

> <JCHEM_GHOSE_FILTER>
0

> <JCHEM_IUPAC>
(4R,7S,10S,13R,16S,19R)-19-[(2R)-2-amino-3-phenylpropanamido]-10-(4-aminobutyl)-16-benzyl-N-[(2R,3R)-1,3-dihydroxybutan-2-yl]-7-[(1R)-1-hydroxyethyl]-13-[(1H-indol-3-yl)methyl]-6,9,12,15,18-pentaoxo-1,2-dithia-5,8,11,14,17-pentaazacycloicosane-4-carboxamide

> <ALOGPS_LOGP>
0.42

> <JCHEM_LOGP>
-1.4112649113972529

> <ALOGPS_LOGS>
-4.92

> <JCHEM_MDDR_LIKE_RULE>
1

> <JCHEM_NUMBER_OF_RINGS>
5

> <JCHEM_PHYSIOLOGICAL_CHARGE>
2

> <JCHEM_PKA>
11.802606911063746

> <JCHEM_PKA_STRONGEST_ACIDIC>
11.401008168102589

> <JCHEM_PKA_STRONGEST_BASIC>
10.173664169156496

> <JCHEM_POLAR_SURFACE_AREA>
332.22

> <JCHEM_REFRACTIVITY>
269.76959999999997

> <JCHEM_ROTATABLE_BOND_COUNT>
17

> <JCHEM_RULE_OF_FIVE>
0

> <ALOGPS_SOLUBILITY>
1.22e-02 g/l

> <JCHEM_TRADITIONAL_IUPAC>
(4R,7S,10S,13R,16S,19R)-19-[(2R)-2-amino-3-phenylpropanamido]-10-(4-aminobutyl)-16-benzyl-N-[(2R,3R)-1,3-dihydroxybutan-2-yl]-7-[(1R)-1-hydroxyethyl]-13-(1H-indol-3-ylmethyl)-6,9,12,15,18-pentaoxo-1,2-dithia-5,8,11,14,17-pentaazacycloicosane-4-carboxamide

> <JCHEM_VEBER_RULE>
0

> <DRUGBANK_ID>
DB00104

> <SECONDARY_ACCESSION_NUMBERS>
BTD00088; BIOD00088

> <DRUG_GROUPS>
approved; investigational

> <GENERIC_NAME>
Octreotide

> <SYNONYMS>
Octreotida; Octreotidum; Octrotide

> <PRODUCTS>
Ocphyl; Octreotide; Octreotide Acetate; Octreotide Acetate Injection   - 100mcg/ml; Octreotide Acetate Injection   - 200mcg/ml; Octreotide Acetate Injection   - 500mcg/ml; Octreotide Acetate Injection  - 50mcg/ml; Octreotide Acetate Omega 100mcg/ml; Octreotide Acetate Omega 200mcg/ml; Octreotide Acetate Omega 500mcg/ml; Octreotide Acetate Omega 50mcg/ml; Octreotide Injection; Sandostatin; Sandostatin 100mcg/ml; Sandostatin 200mcg/ml; Sandostatin 500mcg/ml; Sandostatin 50mcg/ml; Sandostatin Lar 10mg; Sandostatin Lar 20mg; Sandostatin Lar 30mg; Sandostatin Lar Depot; Sandostatin Lar Depot Demonstration Kit

> <INTERNATIONAL_BRANDS>
Sandostatin LAR

> <SALTS>
Octreotide acetate

$$$$
114
  Mrv0541 02231214272D          

 16 16  0  0  0  0            999 V2000
    6.3799    0.2063    0.0000 P   0  0  0  0  0  0  0  0  0  0  0  0
    5.6655   -0.2063    0.0000 O   0  0  0  0  0  0  0  0  0  0  0  0
    2.0930    0.2063    0.0000 O   0  0  0  0  0  0  0  0  0  0  0  0
    6.7925   -0.5082    0.0000 O   0  0  0  0  0  0  0  0  0  0  0  0
    7.0944    0.6188    0.0000 O   0  0  0  0  0  0  0  0  0  0  0  0
    2.8075    1.4438    0.0000 O   0  0  0  0  0  0  0  0  0  0  0  0
    5.9674    0.9207    0.0000 O   0  0  0  0  0  0  0  0  0  0  0  0
    3.5220   -1.4438    0.0000 N   0  0  0  0  0  0  0  0  0  0  0  0
    4.2365   -0.2063    0.0000 C   0  0  0  0  0  0  0  0  0  0  0  0
    3.5220    0.2063    0.0000 C   0  0  0  0  0  0  0  0  0  0  0  0
    4.9509    0.2063    0.0000 C   0  0  0  0  0  0  0  0  0  0  0  0
    2.8075   -0.2063    0.0000 C   0  0  0  0  0  0  0  0  0  0  0  0
    2.8075   -1.0313    0.0000 C   0  0  0  0  0  0  0  0  0  0  0  0
    4.2365   -1.0313    0.0000 C   0  0  0  0  0  0  0  0  0  0  0  0
    2.0930   -1.4438    0.0000 C   0  0  0  0  0  0  0  0  0  0  0  0
    3.5220    1.0313    0.0000 C   0  0  0  0  0  0  0  0  0  0  0  0
  1  2  1  0  0  0  0
  1  4  1  0  0  0  0
  1  5  1  0  0  0  0
  1  7  2  0  0  0  0
  2 11  1  0  0  0  0
  3 12  1  0  0  0  0
  6 16  2  0  0  0  0
  8 13  2  0  0  0  0
  8 14  1  0  0  0  0
  9 10  1  0  0  0  0
  9 11  1  0  0  0  0
  9 14  2  0  0  0  0
 10 12  2  0  0  0  0
 10 16  1  0  0  0  0
 12 13  1  0  0  0  0
 13 15  1  0  0  0  0
M  END
> <DATABASE_ID>
DB00114

> <DATABASE_NAME>
drugbank

> <SMILES>
CC1=NC=C(COP(O)(O)=O)C(C=O)=C1O

> <INCHI_IDENTIFIER>
InChI=1S/C8H10NO6P/c1-5-8(11)7(3-10)6(2-9-5)4-15-16(12,13)14/h2-3,11H,4H2,1H3,(H2,12,13,14)

> <INCHI_KEY>
NGVDGCNFYWLIFO-UHFFFAOYSA-N

> <FORMULA>
C8H10NO6P

> <MOLECULAR_WEIGHT>
247.1419

> <EXACT_MASS>
247.024573569

> <JCHEM_ACCEPTOR_COUNT>
6

> <JCHEM_AVERAGE_POLARIZABILITY>
20.89888718130824

> <JCHEM_BIOAVAILABILITY>
1

> <JCHEM_DONOR_COUNT>
3

> <JCHEM_FORMAL_CHARGE>
0

> <JCHEM_GHOSE_FILTER>
0

> <JCHEM_IUPAC>
[(4-formyl-5-hydroxy-6-methylpyridin-3-yl)methoxy]phosphonic acid

> <ALOGPS_LOGP>
-0.55

> <JCHEM_LOGP>
-2.0856087036128135

> <ALOGPS_LOGS>
-1.64

> <JCHEM_MDDR_LIKE_RULE>
0

> <JCHEM_NUMBER_OF_RINGS>
1

> <JCHEM_PHYSIOLOGICAL_CHARGE>
-2

> <JCHEM_PKA>
6.691277029499376

> <JCHEM_PKA_STRONGEST_ACIDIC>
1.6802986106557465

> <JCHEM_PKA_STRONGEST_BASIC>
4.109012435085948

> <JCHEM_POLAR_SURFACE_AREA>
116.95

> <JCHEM_REFRACTIVITY>
54.746300000000005

> <JCHEM_ROTATABLE_BOND_COUNT>
4

> <JCHEM_RULE_OF_FIVE>
1

> <ALOGPS_SOLUBILITY>
5.70e+00 g/l

> <JCHEM_TRADITIONAL_IUPAC>
pyridoxal phosphate

> <JCHEM_VEBER_RULE>
0

> <DRUGBANK_ID>
DB00114

> <SECONDARY_ACCESSION_NUMBERS>
NUTR00045

> <DRUG_GROUPS>
nutraceutical

> <GENERIC_NAME>
Pyridoxal Phosphate

> <SYNONYMS>
3-hydroxy-2-methyl-5-((phosphonooxy)methyl)-4-pyridinecarboxaldehyde; 3-hydroxy-5-(hydroxymethyl)-2-methylisonicotinaldehyde 5-phosphate; Codecarboxylase; PLP; Pyridoxal 5-monophosphoric acid ester; Pyridoxal 5-phosphate; Pyridoxal 5'-phosphate; Pyridoxal P; Pyridoxal phosphate anhydrous; Pyridoxal-5P; Pyridoxal-P

> <INTERNATIONAL_BRANDS>
Biosechs; Himitan; Vitazechs

> <SALTS>
Pyridoxal phosphate hydrate

$$$$

  Mrv0541 04191211592D          

 95106  0  0  1  0            999 V2000
   -0.6472   -1.5655    0.0000 C   0  0  0  0  0  0  0  0  0  0  0  0
   -0.7591   -0.7620    0.0000 N   0  0  0  0  0  0  0  0  0  0  0  0
   -1.9518   -1.3667    0.0000 C   0  0  1  0  0  0  0  0  0  0  0  0
   -2.6231   -1.8463    0.0000 C   0  0  0  0  0  0  0  0  0  0  0  0
   -3.3741   -1.5048    0.0000 C   0  0  0  0  0  0  0  0  0  0  0  0
   -3.4538   -0.6837    0.0000 O   0  0  0  0  0  0  0  0  0  0  0  0
   -0.7591    0.9361    0.0000 N   0  0  0  0  0  0  0  0  0  0  0  0
   -0.6472    1.7396    0.0000 C   0  0  0  0  0  0  0  0  0  0  0  0
   -1.3596    2.1164    0.0000 C   0  0  1  0  0  0  0  0  0  0  0  0
   -1.4780    2.9329    0.0000 C   0  0  0  0  0  0  0  0  0  0  0  0
   -0.8302    3.4437    0.0000 C   0  0  0  0  0  0  0  0  0  0  0  0
   -0.9487    4.2601    0.0000 C   0  0  0  0  0  0  0  0  0  0  0  0
   -1.7149    4.5657    0.0000 O   0  0  0  0  0  0  0  0  0  0  0  0
   -1.9518    1.5366    0.0000 C   0  0  2  0  0  0  0  0  0  0  0  0
   -2.5935    2.0551    0.0000 C   0  0  0  0  0  0  0  0  0  0  0  0
   -2.7217    1.2401    0.0000 C   0  0  0  0  0  0  0  0  0  0  0  0
   -3.3634    1.7586    0.0000 C   0  0  0  0  0  0  0  0  0  0  0  0
   -4.1333    1.4621    0.0000 O   0  0  0  0  0  0  0  0  0  0  0  0
    0.7940    1.7396    0.0000 C   0  0  0  0  0  0  0  0  0  0  0  0
    0.9183    0.9361    0.0000 N   0  0  0  0  0  0  0  0  0  0  0  0
    1.7425    0.7870    0.0000 C   0  0  0  0  0  0  0  0  0  0  0  0
    2.1566    0.0870    0.0000 C   0  0  0  0  0  0  0  0  0  0  0  0
    1.7425   -0.6171    0.0000 C   0  0  0  0  0  0  0  0  0  0  0  0
    0.9183   -0.7620    0.0000 N   0  0  0  0  0  0  0  0  0  0  0  0
    0.7940   -1.5655    0.0000 C   0  0  0  0  0  0  0  0  0  0  0  0
    1.5313   -1.9465    0.0000 C   0  0  1  0  0  0  0  0  0  0  0  0
    1.6536   -2.7624    0.0000 C   0  0  0  0  0  0  0  0  0  0  0  0
    2.4214   -3.0643    0.0000 C   0  0  0  0  0  0  0  0  0  0  0  0
    2.5437   -3.8802    0.0000 C   0  0  0  0  0  0  0  0  0  0  0  0
    3.3114   -4.1822    0.0000 O   0  0  0  0  0  0  0  0  0  0  0  0
    2.1235   -1.3667    0.0000 C   0  0  0  0  0  0  0  0  0  0  0  0
    2.7616   -1.8896    0.0000 C   0  0  0  0  0  0  0  0  0  0  0  0
    2.8954   -1.0755    0.0000 C   0  0  0  0  0  0  0  0  0  0  0  0
    2.1235    1.5366    0.0000 C   0  0  1  0  0  0  0  0  0  0  0  0
    2.7961    2.0143    0.0000 C   0  0  0  0  0  0  0  0  0  0  0  0
    3.5462    1.6707    0.0000 C   0  0  0  0  0  0  0  0  0  0  0  0
    4.2188    2.1484    0.0000 C   0  0  0  0  0  0  0  0  0  0  0  0
    4.1413    2.9697    0.0000 O   0  0  0  0  0  0  0  0  0  0  0  0
    1.5313    2.1164    0.0000 C   0  0  1  0  0  0  0  0  0  0  0  0
    2.2821    2.4583    0.0000 C   0  0  0  0  0  0  0  0  0  0  0  0
    1.6106    2.9376    0.0000 C   0  0  0  0  0  0  0  0  0  0  0  0
    2.3614    3.2795    0.0000 C   0  0  0  0  0  0  0  0  0  0  0  0
    2.4408    4.1007    0.0000 O   0  0  0  0  0  0  0  0  0  0  0  0
    0.0900    2.1495    0.0000 C   0  0  0  0  0  0  0  0  0  0  0  0
    0.0900    2.9745    0.0000 C   0  0  0  0  0  0  0  0  0  0  0  0
    0.0900   -1.9797    0.0000 C   0  0  0  0  0  0  0  0  0  0  0  0
    0.0900   -2.8047    0.0000 C   0  0  0  0  0  0  0  0  0  0  0  0
   -1.5708   -0.6171    0.0000 C   0  0  2  0  0  0  0  0  0  0  0  0
   -2.3677   -0.4036    0.0000 H   0  0  0  0  0  0  0  0  0  0  0  0
   -1.5708    0.8118    0.0000 C   0  0  2  0  0  0  0  0  0  0  0  0
   -2.3677    0.5983    0.0000 C   0  0  0  0  0  0  0  0  0  0  0  0
   -2.0741   -3.1840    0.0000 C   0  0  0  0  0  0  0  0  0  0  0  0
   -2.7885   -3.5965    0.0000 C   0  0  0  0  0  0  0  0  0  0  0  0
   -3.5030   -3.1840    0.0000 O   0  0  0  0  0  0  0  0  0  0  0  0
   -2.7885   -4.4215    0.0000 N   0  0  0  0  0  0  0  0  0  0  0  0
   -3.5030   -4.8340    0.0000 C   0  0  0  0  0  0  0  0  0  0  0  0
   -3.5030   -5.6590    0.0000 C   0  0  2  0  0  0  0  0  0  0  0  0
   -4.3280   -5.6590    0.0000 H   0  0  0  0  0  0  0  0  0  0  0  0
   -2.0741   -2.3590    0.0000 C   0  0  0  0  0  0  0  0  0  0  0  0
   -1.3596   -1.9465    0.0000 C   0  0  1  0  0  0  0  0  0  0  0  0
   -1.3596   -2.7715    0.0000 C   0  0  0  0  0  0  0  0  0  0  0  0
   -0.3008    4.7709    0.0000 N   0  0  0  0  0  0  0  0  0  0  0  0
    3.0329    2.8002    0.0000 N   0  0  0  0  0  0  0  0  0  0  0  0
    4.9688    1.8048    0.0000 N   0  0  0  0  0  0  0  0  0  0  0  0
    1.8983   -4.3941    0.0000 N   0  0  0  0  0  0  0  0  0  0  0  0
   -3.2353    2.5736    0.0000 N   0  0  0  0  0  0  0  0  0  0  0  0
   -4.0453   -1.9845    0.0000 N   0  0  0  0  0  0  0  0  0  0  0  0
    2.5001   -5.6865    0.0000 C   0  0  0  0  0  0  0  0  0  0  0  0
    1.6751   -7.1154    0.0000 C   0  0  0  0  0  0  0  0  0  0  0  0
    1.6751   -5.6865    0.0000 C   0  0  0  0  0  0  0  0  0  0  0  0
    0.3694   -5.4090    0.0000 C   0  0  0  0  0  0  0  0  0  0  0  0
    1.2626   -6.4010    0.0000 C   0  0  0  0  0  0  0  0  0  0  0  0
    1.1231   -5.0734    0.0000 N   0  0  0  0  0  0  0  0  0  0  0  0
    0.4556   -6.2294    0.0000 N   0  0  0  0  0  0  0  0  0  0  0  0
    2.9126   -6.4010    0.0000 C   0  0  0  0  0  0  0  0  0  0  0  0
    3.7376   -6.4010    0.0000 C   0  0  0  0  0  0  0  0  0  0  0  0
    2.5001   -7.1154    0.0000 C   0  0  0  0  0  0  0  0  0  0  0  0
    2.9126   -7.8299    0.0000 C   0  0  0  0  0  0  0  0  0  0  0  0
   -0.1575   -6.7815    0.0000 C   0  0  1  0  0  0  0  0  0  0  0  0
   -0.0712   -7.6020    0.0000 O   0  0  0  0  0  0  0  0  0  0  0  0
   -0.8249   -7.9375    0.0000 C   0  0  2  0  0  0  0  0  0  0  0  0
   -0.9964   -8.7445    0.0000 C   0  0  0  0  0  0  0  0  0  0  0  0
   -1.7811   -8.9994    0.0000 O   0  0  0  0  0  0  0  0  0  0  0  0
   -0.9645   -6.6099    0.0000 C   0  0  2  0  0  0  0  0  0  0  0  0
   -1.3000   -5.8563    0.0000 O   0  0  0  0  0  0  0  0  0  0  0  0
   -1.3770   -7.3244    0.0000 C   0  0  2  0  0  0  0  0  0  0  0  0
   -2.1974   -7.4107    0.0000 O   0  0  0  0  0  0  0  0  0  0  0  0
   -2.8457   -7.2080    0.0000 O   0  0  0  0  0  0  0  0  0  0  0  0
   -2.6780   -5.6590    0.0000 O   0  0  0  0  0  0  0  0  0  0  0  0
   -3.5030   -6.4840    0.0000 C   0  0  0  0  0  0  0  0  0  0  0  0
   -2.1984   -6.5819    0.0000 P   0  0  0  0  0  0  0  0  0  0  0  0
   -1.4419   -6.6140    0.0000 O   0  0  0  0  0  0  0  0  0  0  0  0
    0.0601    0.1366    0.0000 Co  0  0  0  0  0  0  0  0  0  0  0  0
   -0.4324    2.9513    0.0000 C   0  0  0  0  0  0  0  0  0  0  0  0
   -0.0593    3.8036    0.0000 N   0  0  0  0  0  0  0  0  0  0  0  0
 46  1  2  0  0  0  0
  1  2  1  0  0  0  0
 60  1  1  0  0  0  0
 48  2  1  0  0  0  0
  2 93  1  0  0  0  0
 48  3  1  0  0  0  0
 48 50  1  0  0  0  0
  3  4  1  1  0  0  0
  3 60  1  0  0  0  0
  4  5  1  0  0  0  0
  5 67  1  0  0  0  0
  5  6  2  0  0  0  0
 50  7  1  0  0  0  0
 50 14  1  0  0  0  0
  7  8  2  0  0  0  0
  9  8  1  0  0  0  0
  8 44  1  0  0  0  0
  9 10  1  6  0  0  0
 14  9  1  0  0  0  0
 10 11  1  0  0  0  0
 11 12  1  0  0  0  0
 12 62  1  0  0  0  0
 12 13  2  0  0  0  0
 14 15  1  6  0  0  0
 14 16  1  0  0  0  0
 16 17  1  0  0  0  0
 17 66  1  0  0  0  0
 17 18  2  0  0  0  0
 44 19  2  0  0  0  0
 19 20  1  0  0  0  0
 19 39  1  0  0  0  0
 20 21  2  0  0  0  0
 21 22  1  0  0  0  0
 21 34  1  0  0  0  0
 22 23  2  0  0  0  0
 23 24  1  0  0  0  0
 23 31  1  0  0  0  0
 24 25  2  0  0  0  0
 25 26  1  0  0  0  0
 26 27  1  6  0  0  0
 26 31  1  0  0  0  0
 27 28  1  0  0  0  0
 28 29  1  0  0  0  0
 29 65  1  0  0  0  0
 29 30  2  0  0  0  0
 31 32  1  0  0  0  0
 31 33  1  0  0  0  0
 34 35  1  6  0  0  0
 34 39  1  0  0  0  0
 35 36  1  0  0  0  0
 36 37  1  0  0  0  0
 37 64  1  0  0  0  0
 37 38  2  0  0  0  0
 39 40  1  6  0  0  0
 39 41  1  1  0  0  0
 41 42  1  0  0  0  0
 42 63  1  0  0  0  0
 42 43  2  0  0  0  0
 20 93  8  0  0  0  0
  7 93  8  0  0  0  0
 24 93  8  0  0  0  0
 44 45  1  0  0  0  0
 46 47  1  0  0  0  0
 48 49  1  1  0  0  0
 50 51  1  6  0  0  0
 59 52  1  0  0  0  0
 52 53  1  0  0  0  0
 53 55  1  0  0  0  0
 53 54  2  0  0  0  0
 56 55  1  0  0  0  0
 57 56  1  0  0  0  0
 57 89  1  1  0  0  0
 57 58  1  1  0  0  0
 57 90  1  0  0  0  0
 60 59  1  6  0  0  0
 60 61  1  1  0  0  0
 46 25  1  0  0  0  0
 68 70  2  0  0  0  0
 68 75  1  0  0  0  0
 72 69  2  0  0  0  0
 69 77  1  0  0  0  0
 70 73  1  0  0  0  0
 70 72  1  0  0  0  0
 71 74  1  0  0  0  0
 71 73  2  0  0  0  0
 74 72  1  0  0  0  0
 79 74  1  1  0  0  0
 77 75  2  0  0  0  0
 75 76  1  0  0  0  0
 77 78  1  0  0  0  0
 79 84  1  0  0  0  0
 79 80  1  0  0  0  0
 81 80  1  0  0  0  0
 86 81  1  0  0  0  0
 81 82  1  6  0  0  0
 82 83  1  0  0  0  0
 84 86  1  0  0  0  0
 84 85  1  1  0  0  0
 86 87  1  1  0  0  0
 91 87  1  0  0  0  0
 91 88  1  0  0  0  0
 91 89  1  0  0  0  0
 91 92  2  0  0  0  0
 93 94  1  0  0  0  0
 94 95  3  0  0  0  0
 73 93  8  0  0  0  0
M  STY  4   1 DAT   2 DAT   3 DAT   4 DAT
M  SAL   1  2  20  93
M  SDT   1 MRV_COORDINATE_BOND_TYPE                              
M  SDD   1     0.0000    0.0000    DR    ALL  0       0  
M  SED   1 59
M  SAL   2  2   7  93
M  SDT   2 MRV_COORDINATE_BOND_TYPE                              
M  SDD   2     0.0000    0.0000    DR    ALL  0       0  
M  SED   2 60
M  SAL   3  2  24  93
M  SDT   3 MRV_COORDINATE_BOND_TYPE                              
M  SDD   3     0.0000    0.0000    DR    ALL  0       0  
M  SED   3 61
M  SAL   4  2  73  93
M  SDT   4 MRV_COORDINATE_BOND_TYPE                              
M  SDD   4     0.0000    0.0000    DR    ALL  0       0  
M  SED   4 106
M  END
> <DATABASE_ID>
DB00115

> <DATABASE_NAME>
drugbank

> <SMILES>
OC[C@H]1O[C@@H]([C@H](O)[C@@H]1OP(O)(=O)O[C@]([H])(C)CNC(=O)CC[C@]1(C)[C@@H](CC(=O)N)[C@@]2([H])N([Co]C#N)\C1=C(C)/C1=N/C(=C\C3=N\C(=C(C)/C4=N[C@]2(C)[C@@](C)(CC(=O)N)[C@@H]4CCC(=O)N)\[C@@](C)(CC(=O)N)[C@@H]3CCC(=O)N)/C(C)(C)[C@@H]1CCC(=O)N)N1C=NC2=CC(C)=C(C)C=C12

> <INCHI_IDENTIFIER>
InChI=1S/C62H90N13O14P.CN.Co/c1-29-20-39-40(21-30(29)2)75(28-70-39)57-52(84)53(41(27-76)87-57)89-90(85,86)88-31(3)26-69-49(83)18-19-59(8)37(22-46(66)80)56-62(11)61(10,25-48(68)82)36(14-17-45(65)79)51(74-62)33(5)55-60(9,24-47(67)81)34(12-15-43(63)77)38(71-55)23-42-58(6,7)35(13-16-44(64)78)50(72-42)32(4)54(59)73-56;1-2;/h20-21,23,28,31,34-37,41,52-53,56-57,76,84H,12-19,22,24-27H2,1-11H3,(H15,63,64,65,66,67,68,69,71,72,73,74,77,78,79,80,81,82,83,85,86);;/q;;+1/p-1/t31-,34-,35-,36-,37+,41-,52-,53-,56-,57+,59-,60+,61+,62+;;/m1../s1

> <INCHI_KEY>
SEKGMJVHSBBHRD-WZHZPDAFSA-M

> <FORMULA>
C63H89CoN14O14P

> <MOLECULAR_WEIGHT>
1356.3731

> <EXACT_MASS>
1355.575230332

> <JCHEM_BIOAVAILABILITY>
0

> <JCHEM_FORMAL_CHARGE>
0

> <JCHEM_GHOSE_FILTER>
0

> <JCHEM_IUPAC>
[(1R,2R,3S,4S,8S,9S,14S,18R,19R)-4,9,14-tris(2-carbamoylethyl)-3,8,19-tris(carbamoylmethyl)-18-(2-{[(2R)-2-[({[(2R,3S,4R,5S)-5-(5,6-dimethyl-1H-1,3-benzodiazol-1-yl)-4-hydroxy-2-(hydroxymethyl)oxolan-3-yl]oxy}(hydroxy)phosphoryl)oxy]propyl]carbamoyl}ethyl)-2,3,6,8,13,13,16,18-octamethyl-20,21,22,23-tetraazapentacyclo[15.2.1.1,.1,.1,]tricosa-5(23),6,10(22),11,15(21),16-hexaen-20-yl]cobaltcarbonitrile

> <ALOGPS_LOGP>
1.87

> <ALOGPS_LOGS>
-4.55

> <JCHEM_MDDR_LIKE_RULE>
1

> <JCHEM_NUMBER_OF_RINGS>
8

> <JCHEM_PHYSIOLOGICAL_CHARGE>
2

> <JCHEM_PKA_STRONGEST_ACIDIC>
1.8410431729042473

> <JCHEM_PKA_STRONGEST_BASIC>
8.771751821130694

> <JCHEM_RULE_OF_FIVE>
0

> <ALOGPS_SOLUBILITY>
3.84e-02 g/l

> <JCHEM_TRADITIONAL_IUPAC>
[(1R,2R,3S,4S,8S,9S,14S,18R,19R)-4,9,14-tris(2-carbamoylethyl)-3,8,19-tris(carbamoylmethyl)-18-(2-{[(2R)-2-({[(2R,3S,4R,5S)-5-(5,6-dimethyl-1,3-benzodiazol-1-yl)-4-hydroxy-2-(hydroxymethyl)oxolan-3-yl]oxy(hydroxy)phosphoryl}oxy)propyl]carbamoyl}ethyl)-2,3,6,8,13,13,16,18-octamethyl-20,21,22,23-tetraazapentacyclo[15.2.1.1,.1,.1,]tricosa-5(23),6,10(22),11,15(21),16-hexaen-20-yl]cobaltcarbonitrile

> <JCHEM_VEBER_RULE>
0

> <DRUGBANK_ID>
DB00115

> <SECONDARY_ACCESSION_NUMBERS>
NUTR00004; APRD00326; EXPT00965

> <DRUG_GROUPS>
approved; nutraceutical

> <GENERIC_NAME>
Cyanocobalamin

> <SYNONYMS>
Cyanocob(III)alamin; Vitamin B12; Vitamin B12 complex

> <PRODUCTS>
Active Fe; Aj-cyanocobalamin; Alphaligo; Alsimine W Vitamins A D; Am Caps; American Eagle Energizer Plus Vitamin Supplement Drink; American Plus Energy & Vitamin Drink; Animi-3; Animi-3 With Vitamin D; Av-vite Fb; B 50 Capsules; B C Antistress Cap; B Complex 25mg Vitamin Supplement; B Complex 50 Vitamin Cap; B Complex 50+ Caplet; B Complex Plus C 300mg Tab; B Complex Tablets; B Complex W C Forte Cap; B Complex W C and B12 Inj; B Complex W Vit C W Non-med Yeast&liver Tab; B Complex W Vitamin C Fortis Cap; B Complex With C 300mg; B Complex With C 550mg; B Compound 50mg Tab; B Plus C 300 mg; B Stress C + Iron & Vite; B Virol; B Vitamin Compound With B12 Thunas; B With C 500 Cap; B-100 Caps; B-100 Complex Tablets; B-100 Hi Potency B Vitamins Tab; B-12 1000 Inj 1000mcg/ml; B-12 1000mcg Continuous Released Tab; B-50 Complex; B-50 Complex Tab; B-50 Hi Potency B Vitamins Tab; B-complex; B-complex 100; B-complex 50; B-complex Tab; B-complex Tablets; B-complex With Vitamin C, Biotin, Folic Acid; B-complex-50 Tab; B-plex; B-plus - Tab; B12 1000mcg; B12 250mcg Cyanocobalamin; B12 Inject Kit; B50 B Complex Tab; B50 Complex; B6, B12 & Folic Acid; B6, B12 & Folic Acid Multi-vitamin Tablets; Bacmin; Balanced B 125 Srt; Balanced B-100 B-complex Vitamins Tab; Balanced B-50 B-complex Vitamins Tab; Balanced B-50 B-complex Vitamins, Timed Rele; Balanced B-50 Complex; Balanced B-complex Vit + Vit C&e Tab; Balanced B100; Balanced B50 Complex; Beautel Supplement De Vitamines Et Mineral; Bedoz 1000inj; Beminal With C Fortis Cap; Bev 29 Tab; Bev B-150; Biferarx; Bio-b12; Bioferr 90; Biovim Tab; Bugs Bunny Chew Multi Vit Plus Iron; Bugs Bunny and Friends Multiple Vitamins; C-B Complex; C-force; C-nate DHA; C.R.D.-force; Calcium Folic Acid Plus D Chewable; Carbassist Tablets; Cataplex B12 Tab 6mcg; Cda-21 Vitamins With Non-medicinal Probiotic Complex; Cedevita Plus Vitamin Supplement; Cedevita Sugar-free Vitamin Supplement; Chela-chromium 200; Chew.multiple Vits.with Extra C for Children; Chewable Multiple Vit Plus Iron for Children; Chewable Multiple Vitamins Plus Extra C; Chewable Multiple Vitamins Plus Iron Tab; Chewable Multiple Vitamins Tab; Chewable Multiple Vitamins for Children; Chewable Multivitamins; Chewable Multivitamins Plus Iron; Children Choice Multivit Chewable Tab; Children Choice Multivitamin W Iron Chew Tab; Children's Chewable Multi Vit W Iron; Children's Chewable Multi Vitamins; Children's Chewable Multi Vitamins With Iron Tablets; Children's Chewable Multi-vitamin; Children's Chewable Multi-vitamin Complete With Minerals; Children's Chewable Multiple Vit.plus Iron; Children's Chewable Multiple Vitamins (chewable Tablets); Children's Chewable Multiple Vitamins - Tab; Children's Chewable Multiple Vitamins With Extra Vitamin C (chewable Tablets); Children's Chewable Multiple Vitamins With Iron Tablets (chewable Tablets); Children's Vitamins Chewable; Children's Vitamins W Iron Chewable; Childrens Chew Multi Vitamin Tab; Childrens Chewable Multiple Vitamins; Childrens Chewable Multiple Vitamins Plus Fe; Childrens Chewable Multiple Vitamins Tab; Childrens Chewable Multivitamins; Childrens Chewable Multivitamins W Iron; Childrens Chewable Vitamin Tab; Childrens Chewable Vitamins; Childrens Multiple Vit and Min Chew Tab; Cobex Inj 1000mcg/ml; Complete Mega B; Complex-75; Complexe B 75mg; Complexe B Compose 75; Complexe B-75; Concept DHA; Concept Ob; Cool B; Crystalline Vitamin B12-liq Im Sc 1000mcg/ml; Cyanocobalamin; Cyanocobalamin Injection USP 1000mcg/ml; Cyanocobalamin Injection, USP; Daily Energy Brand B-complex; Derma-force; Dia-vite; Diaplex; Divista; Dynam Ampoule Et Tablet; E.S.T. Complex; Efferlife Multivitamins and Minerals; Energy 80 Prolonged Release Tab; Enviroflex - Tab; Escavite; Essential B Tablets; Everyday Multiple Vitamins; Everyday Multiple Vitamins With Iron; Extra P.N. Vitamin-mineral Drink Mix; Ez-flex; Fabb Tablets; Fe C Tab Plus; Fem - Control; Feminex 300 Tab; Feminique W Iron and Calcium Tab; Femitab Tab; Feriva; Feriva Fa; Ferivafa; Ferralet 90; Fib-C Melts; Flinstones Multiple Plus Iron; Flintstones Multiple Vitamins; Flintstones Multiple Vitamins Plus Iron; Flintstones Multiple Vitamins Tab; Flintstones W Extra C Tab; Floravit - Syr; Floriva; Floriva Plus; Folbic; Folcaps; Folet One; Folic Acid Plus; Folic Acid With Vitamin B12 and Vitamin C; Folic Acid-b12 Tab; Foltabs 800; Foltrate; For Kids Only Chewable Multivit. Plus Iron; For Kids Only Chewable Multivitamins - Tab; Formula Ch. Les.; Formula Cn; Formula D.S.; Formula Int; Formula Lf; Formula Pro-B; Forphyll 3mcg; Fortamines 10 Capsules; Fortamines-10 Comprimes; Fortaplex Inj; Fortiplex; Forty Plus Vitamin Supplement; Fusion Activator Formula Tab; G.A.S. Complex; Gestamine Comprimes; Gesticare DHA; Glyco-aide Tab; Golf Vitamin and Mineral Supplement; Gsf Tab 24mcg; H. Formula - Tab; Harvest Of Values All B Complex Tab; Hemarexin Tab; Hematogen; Hematogen Fa; Hematogen Forte; Hemenatal OB; Hemetab; Heparos Ampoules Buvables; Hi Potency B Complex W Chelated Minerals; Hi Potency B52 B Complex Tab; Hi Potency Balanced B-100 Complex - Tab; Hi Potency Stress B Tension With C; High Potency Vitamin B Complex + C Tab; Hill.vite; Homosistrol Capsules; Hormodausse Plus Calc Et D Tab; Hypo Vites Tab; Iberet 500; Iferex 150 Forte; Inatal Advance; Inatal Ultra; Insur-all Vitamin Supplement; Iron 25mg With Vit B-cmplx, Vit C, Cu & Mo; Iron Plus Manganese, B12, Folic Acid & C; Iron Plus Tab; Iron Polysaccharides Folic Acid DHA; Iron Vitamins B6,b12,c,folic Acid Tab; Iron With Vitamins Tab; Isotonix Advanced B-complex Vitamins With Potassium and Magnesium; Isotonix Vitamin B-folic Acid-mineral Supple; Jamp-cyanocobalamin; Kanga Sport Vitamins B & C Plus Minerals; Kanga-B Vitamin B Group + C; Kanga-V Multivitamins & Minerals; Kanga-kid Multi-vitamin & Mineral; Kanga-kid Vitamins & Iron; Kc Vitamin and Mineral Supplement; Kid's Choice Children's Chewable Vitamins - Tab; Kids Stuff Tablets; Kids Stuff With Iron Tablets; Kindervites; Leritone Junior; Lipo-B-C Tab; Lipovitan; Liqui B Complex; Liqui B Complex Plus; Liqui Infant Vitamins; Liqui Vita; Liquid B Complex 50; Livron Plus Ampoule; Livron Plus Tab; Low Potency B Complex Tab; Lysamine Diet Supp Amp-tab; M.V.I. 12; M.V.I. Paediatric; M.V.I. Pediatric; Maltlevol 12 Liq; Maxfe; Maxi 10 Tab; Mega 13 Multivitamin Formula; Menocal Tab; Meplex T 750; Mini-B Tab; Mor-vites Tab; Mr. Tumee Multi-vitamin; Multi - N.T.O.x Formula - Tab; Multi 12 Injection; Multi B; Multi Enfants Tab; Multi Nt-OX; Multi Rol; Multi Vitamin & Minerals; Multi Vitamin - Mineral; Multi Vitamin Drops With Fluoride; Multi Vitamin Plus Iron; Multi Vitamin With Fluoride; Multi Vitamin and Fluoride; Multi Vitamin-mineral Formula; Multi Vitamines - Liq; Multi Vitamins & Minerals; Multi Vite Liq Adult; Multi Vite Liq Junior; Multi-11; Multi-12 Pediatric; Multi-12/k1 Pediatric; Multi-vit With Fluoride; Multi-vitamin; Multi-vitamin Dietary Supplement; Multi-vitamin Fluoride; Multi-vitamin Fluoride Drops; Multi-vitamin With Fluoride; Multi-vitamines Enfants Comprime; Multi-vitamins; Multi-vitamins With Minerals; Multiple Vitamin Plus Minerals Tab; Multiple Vitamin Tab; Multiple Vitamins; Multiple Vitamins Plus Iron for Women; Multiple Vitamins Tab; Multiple Vitamins W Iron Tab; Multiple Vitamins W Minerals Tab; Multiple Vitamins With Iron; Multiple Vitamins With Minerals Tablets; Multiple Vitamins and Minerals Tab; Multisol; Multivit-liq; Multivitamin; Multivitamin With Fluoride; Multivitamines Et Mineraux; Multivitamines Plus Fer Pour Enfants (chewable Tablets); Multivitamines Pour Enfants (chewable Tablets); Multivitamins; Multivitamins W Iron; Multivitamins for Children; Mvc; Mvc-fluoride; Myferon 150 Forte; Myhephron Dialysis and Stress Supplement; Mynephrocaps Dialysis/stress Vitamin Supplement; Nascobal; Nata Komplete; Natafort; Natavite; Neo Bex Elixir; Nephrocaps; Niron Komplete; Nufera; Nutrifer Plus Tablets; Nutrilite Double X; Nutrol-B-complex; O-cal Fa Multivitamin; O-cal Prenatal Vitamin; Onccor; One A Day Advance Adults; One A Day Advance Adults 50+; One A Day Advance Fem; One A Day Tab; Orange Flavored Crystal Chews Tab; Orti B; P.N.P. Vitamin Drink; P.R.O. Complex; PM Caps; PNF-First; Paramettes Multivits Plus Iron Tab (teens); Paramettes Syrup; Phosthenine Vitamines Et Fer (ampoules Buvable); Phytofortis + Calcium A-D; Phytoplex B Liq; Phytopure; Pnv Ferrous Fumarate Docusate Folic Acid; Pnv Prenatal Plus Multivitamin; Pnv Prenatal Vitamin; Pnv Prenatal Vitamin Plus Vitamin A; Pnv-dha; Pnv-select; Polymine Avec Zinc Et Cuivre; Pour Ma Sant; Prefera Ob Plus DHA; Preferaob; Preferaob One; Preferaob Plus DHA; Pregvit; Pregvit Folic 4; Pregvit Folic 5; Prenatal 19; Prenatal Mega Antioxidant; Prenatal Plus; Prenatal Plus Iron; Prenatal Vitamins Plus; Prenatal Vitamins Plus Low Iron; Prenate Am; Prenate Elite; Prenate Enhance; Prenate Essential; Prenate Pixie; Prenate Restore; Prenate Star; Preplus; Pretab; Prevital Tab; Purevit Dualfe Plus; Puro Sang Tab 1mcg; Q.T. Vitamin and Mineral Drink Mix; Reaphirm Plant Source DHA; Red American Eagle Vitamin Supplement Drink; Reebok; Reno Caps; Replavite; Revit Plus Cap; Revitex Ampoules Et Comprimes; Revival 1 Tab; Right Choice A.M. Multi Formula - Caplet; Rubion 1000; Rubramin 1000mcg/ml; Scheinpharm B12 Injection; Se-natal 19; Se-natal 19 Chewable; Se-natal One; Se-tan Plus; Sibergin B - Cap; Somarexin and C 1000; Sopalamine/3b Plus C; Sopalamine/3b Tab; Spectrum 2 Cap; Stress B Capsules With Vitamin C; Stress B Complex With C, E & Iron; Stress B With 1000 Mg Vitamin C; Stress B&c Tab; Stress Complex 600 Avec Vit E Cuivre Zinc; Stress Ctr Srt; Stress Formula; Stress Formula + Iron; Stress Formula B-comp + 500mg Vit C Tab; Stress Formula Multi-B Comp + 500mg Vit C Cap; Stress Formula Multivitamin Tablets USP; Stress Formula Tab; Stress Formula Vit B With C Complex; Stress Forte Plus Lipotropic Factors; Stress Tab; Stress Vitamin B With C Complex Tablets; Stressmates; Strovite Forte Caplet; Strovite One Caplets; Sun-rype Vitaburst; Super B Compound W 500mg Vit C; Super B12 + Folic Acid; Super Charged Energy; Super Daily No 2; Super Pantoplex; Super Stress Capsules; Super Stress Mega B Plus 1000mg Vit C Tab; Super Vitalex Ampoule Buvable; Super-pote Vitamin Supplement; Supravite 10ml Ampoule; Supravite Bouteille 250ml; Supravite C 1000; Supravite Stress Avec Vit E; Supravite Stress Avec Vit E Cuivre Et Zinc; Supravite Stress Avec Vit E Et Fer; Surbex 500 Filmtab; Surbex-500 With Iron; Surbex-500 With Zinc; Sveets; Swical-energy-2; T.R.I. B-plex Src; Tandem Ob; Tandem Plus; Tar-end; Time Release B 100 Compound  -  Tablet; Timed Release B Complex 100 Srt; Timed Release B-complex 100; Timed Release B-complex 50; Tini-cal Ampoules; Tl-hem 150; Toni Com Liq; Tonicol Et A-D-C Ampoules/comprimes; Tozal; Trace Minerals Et/and B12 Tab; Triadvance; Tricare Prenatal; Tricon; Trinatal Gt; Ultra Enerforce; Usana Megavitamin Tablets - Tab; V-natal; VP-heme OB; VP-heme One; Viamon Ampoules Et Comprimes; Vigem 12 Liquid; Vimeral Tab; Virt-PN; Virt-PN DHA; Virt-PN Plus; Virt-bal DHA Plus; Virt-caps; Virt-vite; Virt-vite Plus; Vit B Complex Ctr; Vit B Complex Plus Vit C 550mg; Vit B12 Ctr Srt 1200mcg; Vit B12 Tab 500mcg; Vita B + C 500 Tab; Vita B Complex Tab; Vita Day Tab; Vita-B; Vita-B-75 Cap; Vita-folic-B Caps; Vita-worth B-complex Tablets; Vitabanks Vitamin Tab; Vitachrom Gc; Vitaday Tab; Vitafer - Liq; Vitaflex Dietary Suplement; Vitafol Caplet; Vitafol Nano; Vitafol Ob Caplet; Vitafol One; Vitafol Plus; Vitafol Ultra; Vitalife  -  Capsule; Vitamin B + C Cap; Vitamin B 12 Tab 25mcg; Vitamin B Complex + C 300mg Cap; Vitamin B Complex + C 600mg Tab; Vitamin B Complex 100 Tab; Vitamin B Complex 50; Vitamin B Complex Plus 300mg Vitamin C; Vitamin B Complex Suppl; Vitamin B Complex Tab; Vitamin B Complex W C 300mg Tab; Vitamin B Complex W C Tab; Vitamin B Compound Tab; Vitamin B Compound W C Tab 500mg; Vitamin B Compound W Vit C 250mg Tab; Vitamin B Compound With Vitamin C Fortis Capsule Dtc; Vitamin B Tablets; Vitamin B-12 500 Mcg  -  Tablets; Vitamin B-12 Tablet; Vitamin B-12 With Folic Acid Tablets; Vitamin B12; Vitamin B12  50mcg Tab; Vitamin B12 (cyanocobalamin) 1000mcg Caplet; Vitamin B12 100 Mcg; Vitamin B12 100 Mcg Tablets; Vitamin B12 1000 Mcg; Vitamin B12 100mcg; Vitamin B12 250mcg; Vitamin B12 250mcg Tablets; Vitamin B12 500 Mcg; Vitamin B12 500mcg; Vitamin B12 Cap 500mcg USP; Vitamin B12 Cyanocobalamin Injection, USP 1000 Mcg/ml; Vitamin B12 Cyanocobalamine 500 Mcg; Vitamin B12 Inj 1000mcg/ml; Vitamin B12 Inj 100mcg/ml; Vitamin B12 Plus Tablets W Folic Acid; Vitamin B12 Srt 1000mcg; Vitamin B12 Tab 100mcg; Vitamin B12 Tab 250mcg; Vitamin B12 Tab 25mcg; Vitamin B12 Tab 500mcg; Vitamin B12 Tab 5mcg; Vitamin B12 Tablets 250mcg; Vitamin B12-folic Acid; Vitamin B6 & B12 With Folic Acid; Vitamin Deficiency Injectable System - B12; Vitamine 110 Liq; Vitamine B-12 Tab 100mcg; Vitamine B12  25 Mcg  -  Tablet; Vitamine B12 250mcg; Vitamine B12 Tab 25mcg; Vitamine B12 Tab 3mcg Chewable; Vitamine Du Groupe B Plus Fer - Liq; Vitamins Chewable; Vitamins W Iron Chewable; Vitogen B Stress C Vit E Zinc & Cop; Vitogen B Stress C600; Vtb Vitamin and Mineral Supplement; Women's Formula; Zoo Chews

> <INTERNATIONAL_BRANDS>
Bedodeka; Bedoz; Berubigen; Betalin; Cobione; Cobolin-M; Crystamine; Cyanoject; Cyomin; Cytakon; Cytamen; Dicopac; Neuroforte-R; Primabalt; Rubramin PC; Vitabee 12

$$$$
116
  Mrv0541 02231214272D          

 32 34  0  0  1  0            999 V2000
    3.5220   -0.2143    0.0000 O   0  0  0  0  0  0  0  0  0  0  0  0
    9.9988    1.0569    0.0000 O   0  0  0  0  0  0  0  0  0  0  0  0
   12.8598    0.2429    0.0000 O   0  0  0  0  0  0  0  0  0  0  0  0
   12.1501   -0.9974    0.0000 O   0  0  0  0  0  0  0  0  0  0  0  0
   12.8502    2.7179    0.0000 O   0  0  0  0  0  0  0  0  0  0  0  0
   11.4213    2.7124    0.0000 O   0  0  0  0  0  0  0  0  0  0  0  0
    4.9740   -1.0107    0.0000 N   0  0  0  0  0  0  0  0  0  0  0  0
    4.9740   -2.7179    0.0000 N   0  0  0  0  0  0  0  0  0  0  0  0
    7.1504   -1.4292    0.0000 N   0  0  0  0  0  0  0  0  0  0  0  0
    3.5220   -2.6894    0.0000 N   0  0  0  0  0  0  0  0  0  0  0  0
    2.8075   -1.4518    0.0000 N   0  0  0  0  0  0  0  0  0  0  0  0
   10.7180   -0.1779    0.0000 N   0  0  0  0  0  0  0  0  0  0  0  0
    2.0930   -2.6894    0.0000 N   0  0  0  0  0  0  0  0  0  0  0  0
    5.7214   -1.4347    0.0000 C   0  0  0  0  0  0  0  0  0  0  0  0
    5.7214   -2.2940    0.0000 C   0  0  0  0  0  0  0  0  0  0  0  0
    6.4343   -1.0194    0.0000 C   0  0  0  0  0  0  0  0  0  0  0  0
    4.2364   -1.4518    0.0000 C   0  0  0  0  0  0  0  0  0  0  0  0
    4.2364   -2.2769    0.0000 C   0  0  0  0  0  0  0  0  0  0  0  0
    7.8633   -1.0139    0.0000 C   0  0  0  0  0  0  0  0  0  0  0  0
    3.5220   -1.0393    0.0000 C   0  0  0  0  0  0  0  0  0  0  0  0
    2.8075   -2.2769    0.0000 C   0  0  0  0  0  0  0  0  0  0  0  0
   11.4309    0.2374    0.0000 C   0  0  1  0  0  0  0  0  0  0  0  0
   11.4277    1.0624    0.0000 C   0  0  0  0  0  0  0  0  0  0  0  0
    8.5793   -1.4236    0.0000 C   0  0  0  0  0  0  0  0  0  0  0  0
    7.8601   -0.1888    0.0000 C   0  0  0  0  0  0  0  0  0  0  0  0
    9.2890   -0.1834    0.0000 C   0  0  0  0  0  0  0  0  0  0  0  0
    9.2922   -1.0084    0.0000 C   0  0  0  0  0  0  0  0  0  0  0  0
    8.5730    0.2264    0.0000 C   0  0  0  0  0  0  0  0  0  0  0  0
   12.1406    1.4777    0.0000 C   0  0  0  0  0  0  0  0  0  0  0  0
   10.0019    0.2319    0.0000 C   0  0  0  0  0  0  0  0  0  0  0  0
   12.1469   -0.1723    0.0000 C   0  0  0  0  0  0  0  0  0  0  0  0
   12.1374    2.3027    0.0000 C   0  0  0  0  0  0  0  0  0  0  0  0
  1 20  2  0  0  0  0
  2 30  2  0  0  0  0
  3 31  1  0  0  0  0
  4 31  2  0  0  0  0
  5 32  1  0  0  0  0
  6 32  2  0  0  0  0
  7 14  1  0  0  0  0
  7 17  1  0  0  0  0
  8 15  1  0  0  0  0
  8 18  1  0  0  0  0
  9 16  1  0  0  0  0
  9 19  1  0  0  0  0
 10 18  1  0  0  0  0
 10 21  1  0  0  0  0
 11 20  1  0  0  0  0
 11 21  2  0  0  0  0
 22 12  1  1  0  0  0
 12 30  1  0  0  0  0
 13 21  1  0  0  0  0
 14 15  1  0  0  0  0
 14 16  1  0  0  0  0
 17 18  2  0  0  0  0
 17 20  1  0  0  0  0
 19 24  2  0  0  0  0
 19 25  1  0  0  0  0
 22 23  1  0  0  0  0
 22 31  1  0  0  0  0
 23 29  1  0  0  0  0
 24 27  1  0  0  0  0
 25 28  2  0  0  0  0
 26 27  2  0  0  0  0
 26 28  1  0  0  0  0
 26 30  1  0  0  0  0
 29 32  1  0  0  0  0
M  END
> <DATABASE_ID>
DB00116

> <DATABASE_NAME>
drugbank

> <SMILES>
NC1=NC(=O)C2=C(NCC(CNC3=CC=C(C=C3)C(=O)N[C@@H](CCC(O)=O)C(O)=O)N2)N1

> <INCHI_IDENTIFIER>
InChI=1S/C19H23N7O6/c20-19-25-15-14(17(30)26-19)23-11(8-22-15)7-21-10-3-1-9(2-4-10)16(29)24-12(18(31)32)5-6-13(27)28/h1-4,11-12,21,23H,5-8H2,(H,24,29)(H,27,28)(H,31,32)(H4,20,22,25,26,30)/t11?,12-/m0/s1

> <INCHI_KEY>
MSTNYGQPCMXVAQ-KIYNQFGBSA-N

> <FORMULA>
C19H23N7O6

> <MOLECULAR_WEIGHT>
445.4292

> <EXACT_MASS>
445.170981503

> <JCHEM_ACCEPTOR_COUNT>
12

> <JCHEM_AVERAGE_POLARIZABILITY>
42.9531289011855

> <JCHEM_BIOAVAILABILITY>
0

> <JCHEM_DONOR_COUNT>
8

> <JCHEM_FORMAL_CHARGE>
0

> <JCHEM_GHOSE_FILTER>
0

> <JCHEM_IUPAC>
(2S)-2-[(4-{[(2-amino-4-oxo-1,4,5,6,7,8-hexahydropteridin-6-yl)methyl]amino}phenyl)formamido]pentanedioic acid

> <ALOGPS_LOGP>
-0.96

> <JCHEM_LOGP>
-4.212630310185438

> <ALOGPS_LOGS>
-3.22

> <JCHEM_MDDR_LIKE_RULE>
1

> <JCHEM_NUMBER_OF_RINGS>
3

> <JCHEM_PHYSIOLOGICAL_CHARGE>
-2

> <JCHEM_PKA>
3.863700981959142

> <JCHEM_PKA_STRONGEST_ACIDIC>
3.5095693878577654

> <JCHEM_PKA_STRONGEST_BASIC>
3.5846826310688993

> <JCHEM_POLAR_SURFACE_AREA>
207.27000000000004

> <JCHEM_REFRACTIVITY>
121.3866

> <JCHEM_ROTATABLE_BOND_COUNT>
9

> <JCHEM_RULE_OF_FIVE>
0

> <ALOGPS_SOLUBILITY>
2.69e-01 g/l

> <JCHEM_TRADITIONAL_IUPAC>
tetrahydrofolic acid

> <JCHEM_VEBER_RULE>
0

> <DRUGBANK_ID>
DB00116

> <SECONDARY_ACCESSION_NUMBERS>
NUTR00056

> <DRUG_GROUPS>
approved; nutraceutical

> <GENERIC_NAME>
Tetrahydrofolic acid

> <SYNONYMS>
5,6,7,8-tetrahydrofolate; 5,6,7,8-tetrahydrofolic acid; tetrahydrofolate

$$$$
